
#======================================================================
# CRYSTAL DATA
#----------------------------------------------------------------------
data_VESTA_phase_1

_chemical_name_common                  'Mn1 P4'
_cell_length_a                         16.347(3)
_cell_length_b                         5.847(4)
_cell_length_c                         5.108(3)
_cell_angle_alpha                      115.66(2)
_cell_angle_beta                       95.15(5)
_cell_angle_gamma                      89.21(3)
_cell_volume                           438.130416
_space_group_name_H-M_alt              'P -1'
_space_group_IT_number                 2

loop_
_space_group_symop_operation_xyz
   'x, y, z'
   '-x, -y, -z'

loop_
   _atom_site_label
   _atom_site_occupancy
   _atom_site_fract_x
   _atom_site_fract_y
   _atom_site_fract_z
   _atom_site_adp_type
   _atom_site_B_iso_or_equiv
   _atom_site_type_symbol
   Mn1        1.0     0.07570(10)  0.8781(4)    0.8697(5)   Biso  0.200000 Mn
   P1         1.0     0.0651(2)    0.5709(7)    0.0119(8)   Biso  0.280000 P
   P2         1.0     0.1000(2)    0.1727(7)    0.7146(8)   Biso  0.300000 P
   P3         1.0     0.0563(2)    0.1916(7)    0.3103(8)   Biso  0.240000 P
   P4         1.0     0.1160(2)    0.5696(7)    0.4306(8)   Biso  0.190000 P
   Mn2        1.0     0.25860(10)  0.5498(4)    0.5093(5)   Biso  0.150000 Mn
   P5         1.0     0.2301(2)    0.2465(7)    0.6560(8)   Biso  0.280000 P
   P6         1.0     0.2738(2)    0.2403(7)    0.0734(8)   Biso  0.320000 P
   P7         1.0     0.2716(2)    0.8589(7)    0.3654(8)   Biso  0.230000 P
   P8         1.0     0.2200(2)    0.8538(7)    0.9450(8)   Biso  0.300000 P
   Mn3        1.0     0.40670(10)  0.8194(4)   -0.4995(5)   Biso  0.150000 Mn
   P9         1.0     0.4002(2)    0.1235(7)    0.9538(8)   Biso  0.240000 P
   P10        1.0     0.4342(2)    0.5238(7)    0.0562(8)   Biso  0.360000 P
   P11        1.0     0.3907(2)    0.5043(7)    0.6289(8)   Biso  0.270000 P
   P12        1.0     0.4503(2)    0.1373(7)    0.3813(8)   Biso  0.200000 P
