data_image0
_chemical_formula_structural       ZnNiN6C16H36
_chemical_formula_sum              "Zn1 Ni1 N6 C16 H36"
_cell_length_a       7.3294
_cell_length_b       7.3294
_cell_length_c       8.0722
_cell_angle_alpha    90.0
_cell_angle_beta     90.0
_cell_angle_gamma    90.0

_space_group_name_H-M_alt    "P 1"
_space_group_IT_number       1

loop_
  _space_group_symop_operation_xyz
  'x, y, z'

loop_
  _atom_site_type_symbol
  _atom_site_label
  _atom_site_symmetry_multiplicity
  _atom_site_fract_x
  _atom_site_fract_y
  _atom_site_fract_z
  _atom_site_occupancy
  Zn  Zn1       1.0  0.0  0.0  0.0  1.0000
  Ni  Ni1       1.0  0.4999999999999999  0.4999999999999999  0.0  1.0000
  N   N1        1.0  0.2088  0.20759999999999995  0.0  1.0000
  N   N2        1.0  0.7911999999999999  0.7924  0.0  1.0000
  N   N3        1.0  0.7924  0.2088  0.0  1.0000
  N   N4        1.0  0.20759999999999995  0.7911999999999999  0.0  1.0000
  N   N5        1.0  0.0  0.0  0.2658999999999999  1.0000
  N   N6        1.0  0.0  0.0  0.7341  1.0000
  C   C1        1.0  0.3219999999999999  0.3237  0.0  1.0000
  C   C2        1.0  0.678  0.6763  0.0  1.0000
  C   C3        1.0  0.6763  0.3219999999999999  0.0  1.0000
  C   C4        1.0  0.3237  0.678  0.0  1.0000
  C   C5        1.0  0.0  0.4999999999999999  0.329  1.0000
  C   C6        1.0  0.49999999999999994  0.0  0.329  1.0000
  C   C7        1.0  0.0  0.49999999999999994  0.671  1.0000
  C   C8        1.0  0.4999999999999999  0.0  0.671  1.0000
  C   C9        1.0  0.14749999999999994  0.4303999999999999  0.41449999999999987  1.0000
  C   C10       1.0  0.8524999999999999  0.5696000000000001  0.41449999999999987  1.0000
  C   C11       1.0  0.5696000000000001  0.14749999999999994  0.41449999999999987  1.0000
  C   C12       1.0  0.4303999999999999  0.8524999999999999  0.41449999999999987  1.0000
  C   C13       1.0  0.8524999999999999  0.5696000000000001  0.5855000000000001  1.0000
  C   C14       1.0  0.14749999999999994  0.4303999999999999  0.5855000000000001  1.0000
  C   C15       1.0  0.4303999999999999  0.8524999999999999  0.5855000000000001  1.0000
  C   C16       1.0  0.5696000000000001  0.14749999999999994  0.5855000000000001  1.0000
  H   H1        1.0  0.0  0.4999999999999999  0.195  1.0000
  H   H2        1.0  0.49999999999999994  0.0  0.195  1.0000
  H   H3        1.0  0.0  0.49999999999999994  0.8049999999999999  1.0000
  H   H4        1.0  0.4999999999999999  0.0  0.8049999999999999  1.0000
  H   H5        1.0  0.26299999999999996  0.3757999999999999  0.3473  1.0000
  H   H6        1.0  0.7370000000000001  0.6242000000000001  0.3473  1.0000
  H   H7        1.0  0.6242000000000001  0.26299999999999996  0.3473  1.0000
  H   H8        1.0  0.3757999999999999  0.7370000000000001  0.3473  1.0000
  H   H9        1.0  0.7370000000000001  0.6242000000000001  0.6527000000000001  1.0000
  H   H10       1.0  0.26299999999999996  0.3757999999999999  0.6527000000000001  1.0000
  H   H11       1.0  0.3757999999999999  0.7370000000000001  0.6527000000000001  1.0000
  H   H12       1.0  0.6242000000000001  0.26299999999999996  0.6527000000000001  1.0000
  H   H13       1.0  0.116  0.0672  0.312  1.0000
  H   H14       1.0  0.8839999999999999  0.9327999999999999  0.312  1.0000
  H   H15       1.0  0.9327999999999999  0.116  0.312  1.0000
  H   H16       1.0  0.0672  0.8839999999999999  0.312  1.0000
  H   H17       1.0  0.8839999999999999  0.9327999999999999  0.688  1.0000
  H   H18       1.0  0.116  0.0672  0.688  1.0000
  H   H19       1.0  0.0672  0.8839999999999999  0.688  1.0000
  H   H20       1.0  0.9327999999999999  0.116  0.688  1.0000
  H   H21       1.0  0.0672  0.116  0.312  1.0000
  H   H22       1.0  0.9327999999999999  0.8839999999999999  0.312  1.0000
  H   H23       1.0  0.8839999999999999  0.0672  0.312  1.0000
  H   H24       1.0  0.116  0.9327999999999999  0.312  1.0000
  H   H25       1.0  0.9327999999999999  0.8839999999999999  0.688  1.0000
  H   H26       1.0  0.0672  0.116  0.688  1.0000
  H   H27       1.0  0.116  0.9327999999999999  0.688  1.0000
  H   H28       1.0  0.8839999999999999  0.0672  0.688  1.0000
  H   H29       1.0  0.0  0.134  0.312  1.0000
  H   H30       1.0  0.0  0.8659999999999999  0.312  1.0000
  H   H31       1.0  0.8659999999999999  0.0  0.312  1.0000
  H   H32       1.0  0.134  0.0  0.312  1.0000
  H   H33       1.0  0.0  0.8659999999999999  0.688  1.0000
  H   H34       1.0  0.0  0.134  0.688  1.0000
  H   H35       1.0  0.134  0.0  0.688  1.0000
  H   H36       1.0  0.8659999999999999  0.0  0.688  1.0000
