data_image0
_chemical_formula_structural       U84K18P12O634
_chemical_formula_sum              "U84 K18 P12 O634"
_cell_length_a       26.605
_cell_length_b       26.605
_cell_length_c       33.08
_cell_angle_alpha    90.0
_cell_angle_beta     90.0
_cell_angle_gamma    119.99999999999999

_space_group_name_H-M_alt    "P 1"
_space_group_IT_number       1

loop_
  _space_group_symop_operation_xyz
  'x, y, z'

loop_
  _atom_site_type_symbol
  _atom_site_label
  _atom_site_symmetry_multiplicity
  _atom_site_fract_x
  _atom_site_fract_y
  _atom_site_fract_z
  _atom_site_occupancy
  U   U1        1.0  0.3886200000000001  0.03207  0.31261  1.0000
  U   U2        1.0  0.96793  0.3565500000000001  0.31261  1.0000
  U   U3        1.0  0.6434499999999999  0.6113799999999999  0.31261  1.0000
  U   U4        1.0  0.6113799999999999  0.96793  0.8126099999999999  1.0000
  U   U5        1.0  0.03206999999999999  0.6434499999999999  0.8126099999999999  1.0000
  U   U6        1.0  0.3565500000000001  0.3886200000000001  0.8126099999999999  1.0000
  U   U7        1.0  0.6113799999999999  0.96793  0.68739  1.0000
  U   U8        1.0  0.03206999999999999  0.6434499999999999  0.68739  1.0000
  U   U9        1.0  0.3565500000000001  0.3886200000000001  0.68739  1.0000
  U   U10       1.0  0.3886200000000001  0.03207  0.18739  1.0000
  U   U11       1.0  0.96793  0.3565500000000001  0.18739  1.0000
  U   U12       1.0  0.6434499999999999  0.6113799999999999  0.18739  1.0000
  U   U13       1.0  0.20782  0.92814  0.31279  1.0000
  U   U14       1.0  0.07186  0.27968  0.31279  1.0000
  U   U15       1.0  0.7203200000000002  0.79218  0.31279  1.0000
  U   U16       1.0  0.79218  0.07186  0.81279  1.0000
  U   U17       1.0  0.9281400000000001  0.7203200000000001  0.81279  1.0000
  U   U18       1.0  0.27968000000000004  0.20782000000000003  0.81279  1.0000
  U   U19       1.0  0.79218  0.07186  0.68721  1.0000
  U   U20       1.0  0.9281400000000001  0.7203200000000001  0.68721  1.0000
  U   U21       1.0  0.27968000000000004  0.20782000000000003  0.68721  1.0000
  U   U22       1.0  0.20782  0.92814  0.18721  1.0000
  U   U23       1.0  0.07186  0.27968  0.18721  1.0000
  U   U24       1.0  0.7203200000000002  0.79218  0.18721  1.0000
  U   U25       1.0  0.13226  0.7913399999999999  0.38234  1.0000
  U   U26       1.0  0.20866000000000004  0.34092  0.38234  1.0000
  U   U27       1.0  0.65908  0.86774  0.38234  1.0000
  U   U28       1.0  0.8677400000000001  0.20866  0.88234  1.0000
  U   U29       1.0  0.7913399999999999  0.65908  0.88234  1.0000
  U   U30       1.0  0.34092  0.13226  0.88234  1.0000
  U   U31       1.0  0.8677400000000001  0.20866  0.61766  1.0000
  U   U32       1.0  0.7913399999999999  0.65908  0.61766  1.0000
  U   U33       1.0  0.34092  0.13226  0.61766  1.0000
  U   U34       1.0  0.13226  0.7913399999999999  0.11765999999999999  1.0000
  U   U35       1.0  0.20866000000000004  0.34092  0.11765999999999999  1.0000
  U   U36       1.0  0.65908  0.86774  0.11765999999999999  1.0000
  U   U37       1.0  0.23446999999999998  0.74705  0.45796  1.0000
  U   U38       1.0  0.25295000000000006  0.48742  0.45796  1.0000
  U   U39       1.0  0.51258  0.76553  0.45796  1.0000
  U   U40       1.0  0.7655300000000002  0.25295  0.9579599999999999  1.0000
  U   U41       1.0  0.7470500000000001  0.51258  0.9579599999999999  1.0000
  U   U42       1.0  0.48741999999999996  0.23447  0.9579599999999999  1.0000
  U   U43       1.0  0.7655300000000002  0.25295  0.5420400000000001  1.0000
  U   U44       1.0  0.7470500000000001  0.51258  0.5420400000000001  1.0000
  U   U45       1.0  0.48741999999999996  0.23447  0.5420400000000001  1.0000
  U   U46       1.0  0.23446999999999998  0.74705  0.04204000000000002  1.0000
  U   U47       1.0  0.25295000000000006  0.48742  0.04204000000000002  1.0000
  U   U48       1.0  0.51258  0.76553  0.04204000000000002  1.0000
  U   U49       1.0  0.48679000000000006  0.9959200000000001  0.37983  1.0000
  U   U50       1.0  0.004079999999999997  0.49087000000000003  0.37983  1.0000
  U   U51       1.0  0.50913  0.5132099999999999  0.37983  1.0000
  U   U52       1.0  0.5132099999999999  0.00408  0.87983  1.0000
  U   U53       1.0  0.99592  0.50913  0.87983  1.0000
  U   U54       1.0  0.49087000000000014  0.48679000000000006  0.87983  1.0000
  U   U55       1.0  0.5132099999999999  0.00408  0.62017  1.0000
  U   U56       1.0  0.99592  0.50913  0.62017  1.0000
  U   U57       1.0  0.49087000000000014  0.48679000000000006  0.62017  1.0000
  U   U58       1.0  0.48679000000000006  0.9959200000000001  0.12017  1.0000
  U   U59       1.0  0.004079999999999997  0.49087000000000003  0.12017  1.0000
  U   U60       1.0  0.50913  0.5132099999999999  0.12017  1.0000
  U   U61       1.0  0.40457  0.8434  0.45499  1.0000
  U   U62       1.0  0.1566  0.56117  0.45499  1.0000
  U   U63       1.0  0.43883000000000005  0.59543  0.45499  1.0000
  U   U64       1.0  0.59543  0.1566  0.95499  1.0000
  U   U65       1.0  0.8434000000000001  0.43883000000000005  0.95499  1.0000
  U   U66       1.0  0.56117  0.40457000000000004  0.95499  1.0000
  U   U67       1.0  0.59543  0.1566  0.54501  1.0000
  U   U68       1.0  0.8434000000000001  0.43883000000000005  0.54501  1.0000
  U   U69       1.0  0.56117  0.40457000000000004  0.54501  1.0000
  U   U70       1.0  0.40457  0.8434  0.045009999999999994  1.0000
  U   U71       1.0  0.1566  0.56117  0.045009999999999994  1.0000
  U   U72       1.0  0.43883000000000005  0.59543  0.045009999999999994  1.0000
  U   U73       1.0  0.9874700000000001  0.63375  0.3359  1.0000
  U   U74       1.0  0.36625  0.35372000000000003  0.3359  1.0000
  U   U75       1.0  0.64628  0.01253  0.3359  1.0000
  U   U76       1.0  0.01253  0.36625  0.8359  1.0000
  U   U77       1.0  0.63375  0.64628  0.8359  1.0000
  U   U78       1.0  0.35372000000000003  0.98747  0.8359  1.0000
  U   U79       1.0  0.01253  0.36625  0.6641  1.0000
  U   U80       1.0  0.63375  0.64628  0.6641  1.0000
  U   U81       1.0  0.35372000000000003  0.98747  0.6641  1.0000
  U   U82       1.0  0.9874700000000001  0.63375  0.16410000000000002  1.0000
  U   U83       1.0  0.36625  0.35372000000000003  0.16410000000000002  1.0000
  U   U84       1.0  0.64628  0.01253  0.16410000000000002  1.0000
  K   K1        1.0  0.513  0.867  0.3714  1.0000
  K   K2        1.0  0.133  0.646  0.3714  1.0000
  K   K3        1.0  0.354  0.487  0.3714  1.0000
  K   K4        1.0  0.48700000000000004  0.133  0.8714  1.0000
  K   K5        1.0  0.8670000000000001  0.354  0.8714  1.0000
  K   K6        1.0  0.646  0.513  0.8714  1.0000
  K   K7        1.0  0.48700000000000004  0.133  0.6286  1.0000
  K   K8        1.0  0.8670000000000001  0.354  0.6286  1.0000
  K   K9        1.0  0.646  0.513  0.6286  1.0000
  K   K10       1.0  0.513  0.867  0.1286  1.0000
  K   K11       1.0  0.133  0.646  0.1286  1.0000
  K   K12       1.0  0.354  0.487  0.1286  1.0000
  K   K13       1.0  0.5  0.0  0.5  1.0000
  K   K14       1.0  0.0  0.5  0.5  1.0000
  K   K15       1.0  0.5  0.5  0.5  1.0000
  K   K16       1.0  0.5  0.0  0.0  1.0000
  K   K17       1.0  0.0  0.5  0.0  1.0000
  K   K18       1.0  0.5  0.5  0.0  1.0000
  P   P1        1.0  0.9518  0.6933  0.25  1.0000
  P   P2        1.0  0.3067  0.25849999999999995  0.25  1.0000
  P   P3        1.0  0.7415  0.04819999999999999  0.25  1.0000
  P   P4        1.0  0.04819999999999999  0.3067  0.75  1.0000
  P   P5        1.0  0.6933  0.7415  0.75  1.0000
  P   P6        1.0  0.25849999999999995  0.9518  0.75  1.0000
  P   P7        1.0  0.8921  0.571  0.25  1.0000
  P   P8        1.0  0.42900000000000005  0.3211  0.25  1.0000
  P   P9        1.0  0.6789000000000001  0.10790000000000004  0.25  1.0000
  P   P10       1.0  0.10790000000000004  0.42900000000000005  0.75  1.0000
  P   P11       1.0  0.571  0.6789000000000001  0.75  1.0000
  P   P12       1.0  0.32110000000000005  0.8921000000000001  0.75  1.0000
  O   O1        1.0  0.153  0.9075  0.25  1.0000
  O   O2        1.0  0.0925  0.2455  0.25  1.0000
  O   O3        1.0  0.7545  0.847  0.25  1.0000
  O   O4        1.0  0.847  0.0925  0.75  1.0000
  O   O5        1.0  0.9075  0.7545000000000001  0.75  1.0000
  O   O6        1.0  0.2455  0.153  0.75  1.0000
  O   O7        1.0  0.4392  0.0755  0.25  1.0000
  O   O8        1.0  0.9245  0.36369999999999997  0.25  1.0000
  O   O9        1.0  0.6363000000000002  0.5608  0.25  1.0000
  O   O10       1.0  0.5608  0.9245  0.75  1.0000
  O   O11       1.0  0.07550000000000001  0.6363000000000001  0.75  1.0000
  O   O12       1.0  0.36369999999999997  0.43920000000000003  0.75  1.0000
  O   O13       1.0  0.3236  0.7522  0.4736  1.0000
  O   O14       1.0  0.24780000000000002  0.5714  0.4736  1.0000
  O   O15       1.0  0.42860000000000004  0.6764  0.4736  1.0000
  O   O16       1.0  0.6764  0.24780000000000002  0.9736  1.0000
  O   O17       1.0  0.7522000000000001  0.42860000000000004  0.9736  1.0000
  O   O18       1.0  0.5714  0.3236  0.9736  1.0000
  O   O19       1.0  0.6764  0.24780000000000002  0.5264  1.0000
  O   O20       1.0  0.7522000000000001  0.42860000000000004  0.5264  1.0000
  O   O21       1.0  0.5714  0.3236  0.5264  1.0000
  O   O22       1.0  0.3236  0.7522  0.02639999999999998  1.0000
  O   O23       1.0  0.24780000000000002  0.5714  0.02639999999999998  1.0000
  O   O24       1.0  0.42860000000000004  0.6764  0.02639999999999998  1.0000
  O   O25       1.0  0.5806  0.0036000000000000003  0.3866  1.0000
  O   O26       1.0  0.9964  0.577  0.3866  1.0000
  O   O27       1.0  0.42300000000000004  0.4194  0.3866  1.0000
  O   O28       1.0  0.4194  0.9964  0.8866  1.0000
  O   O29       1.0  0.003599999999999988  0.42300000000000004  0.8866  1.0000
  O   O30       1.0  0.577  0.5806  0.8866  1.0000
  O   O31       1.0  0.4194  0.9964  0.6134  1.0000
  O   O32       1.0  0.003599999999999988  0.42300000000000004  0.6134  1.0000
  O   O33       1.0  0.577  0.5806  0.6134  1.0000
  O   O34       1.0  0.5806  0.0036000000000000003  0.1134  1.0000
  O   O35       1.0  0.9964  0.577  0.1134  1.0000
  O   O36       1.0  0.42300000000000004  0.4194  0.1134  1.0000
  O   O37       1.0  0.39430000000000004  0.9910000000000001  0.3736  1.0000
  O   O38       1.0  0.008999999999999992  0.4033  0.3736  1.0000
  O   O39       1.0  0.5967  0.6057  0.3736  1.0000
  O   O40       1.0  0.6057  0.009  0.8735999999999999  1.0000
  O   O41       1.0  0.991  0.5967  0.8735999999999999  1.0000
  O   O42       1.0  0.4033  0.39430000000000004  0.8735999999999999  1.0000
  O   O43       1.0  0.6057  0.009  0.6264000000000001  1.0000
  O   O44       1.0  0.991  0.5967  0.6264000000000001  1.0000
  O   O45       1.0  0.4033  0.39430000000000004  0.6264000000000001  1.0000
  O   O46       1.0  0.39430000000000004  0.9910000000000001  0.1264  1.0000
  O   O47       1.0  0.008999999999999992  0.4033  0.1264  1.0000
  O   O48       1.0  0.5967  0.6057  0.1264  1.0000
  O   O49       1.0  0.20850000000000002  0.9686000000000001  0.25  1.0000
  O   O50       1.0  0.031400000000000004  0.2399  0.25  1.0000
  O   O51       1.0  0.7601  0.7915  0.25  1.0000
  O   O52       1.0  0.7915000000000001  0.0314  0.75  1.0000
  O   O53       1.0  0.9686  0.7601  0.75  1.0000
  O   O54       1.0  0.2399  0.20850000000000002  0.75  1.0000
  O   O55       1.0  0.42610000000000003  0.9341  0.4314  1.0000
  O   O56       1.0  0.0659  0.49200000000000005  0.4314  1.0000
  O   O57       1.0  0.508  0.5739  0.4314  1.0000
  O   O58       1.0  0.5739  0.0659  0.9314  1.0000
  O   O59       1.0  0.9341  0.508  0.9314  1.0000
  O   O60       1.0  0.4920000000000001  0.42610000000000003  0.9314  1.0000
  O   O61       1.0  0.5739  0.0659  0.5686  1.0000
  O   O62       1.0  0.9341  0.508  0.5686  1.0000
  O   O63       1.0  0.4920000000000001  0.42610000000000003  0.5686  1.0000
  O   O64       1.0  0.42610000000000003  0.9341  0.0686  1.0000
  O   O65       1.0  0.0659  0.49200000000000005  0.0686  1.0000
  O   O66       1.0  0.508  0.5739  0.0686  1.0000
  O   O67       1.0  0.4105  0.8746  0.5065  1.0000
  O   O68       1.0  0.1254  0.5359  0.5065  1.0000
  O   O69       1.0  0.4641  0.5895  0.5065  1.0000
  O   O70       1.0  0.5895  0.1254  0.00649999999999995  1.0000
  O   O71       1.0  0.8746  0.46409999999999996  0.00649999999999995  1.0000
  O   O72       1.0  0.5359  0.4105  0.00649999999999995  1.0000
  O   O73       1.0  0.5895  0.1254  0.49350000000000005  1.0000
  O   O74       1.0  0.8746  0.46409999999999996  0.49350000000000005  1.0000
  O   O75       1.0  0.5359  0.4105  0.49350000000000005  1.0000
  O   O76       1.0  0.4105  0.8746  0.9935000000000002  1.0000
  O   O77       1.0  0.1254  0.5359  0.9935000000000002  1.0000
  O   O78       1.0  0.4641  0.5895  0.9935000000000002  1.0000
  O   O79       1.0  0.24320000000000006  0.8913000000000001  0.2932  1.0000
  O   O80       1.0  0.10869999999999998  0.3519  0.2932  1.0000
  O   O81       1.0  0.6480999999999999  0.7567999999999999  0.2932  1.0000
  O   O82       1.0  0.7567999999999999  0.1087  0.7932  1.0000
  O   O83       1.0  0.8913000000000001  0.6480999999999999  0.7932  1.0000
  O   O84       1.0  0.35190000000000005  0.24320000000000006  0.7932  1.0000
  O   O85       1.0  0.7567999999999999  0.1087  0.7068  1.0000
  O   O86       1.0  0.8913000000000001  0.6480999999999999  0.7068  1.0000
  O   O87       1.0  0.35190000000000005  0.24320000000000006  0.7068  1.0000
  O   O88       1.0  0.24320000000000006  0.8913000000000001  0.20679999999999998  1.0000
  O   O89       1.0  0.10869999999999998  0.3519  0.20679999999999998  1.0000
  O   O90       1.0  0.6480999999999999  0.7567999999999999  0.20679999999999998  1.0000
  O   O91       1.0  0.4917  0.8427  0.466  1.0000
  O   O92       1.0  0.1573  0.649  0.466  1.0000
  O   O93       1.0  0.351  0.5083  0.466  1.0000
  O   O94       1.0  0.5083  0.1573  0.966  1.0000
  O   O95       1.0  0.8427  0.35100000000000003  0.966  1.0000
  O   O96       1.0  0.649  0.4917  0.966  1.0000
  O   O97       1.0  0.5083  0.1573  0.534  1.0000
  O   O98       1.0  0.8427  0.35100000000000003  0.534  1.0000
  O   O99       1.0  0.649  0.4917  0.534  1.0000
  O   O100      1.0  0.4917  0.8427  0.033999999999999975  1.0000
  O   O101      1.0  0.1573  0.649  0.033999999999999975  1.0000
  O   O102      1.0  0.351  0.5083  0.033999999999999975  1.0000
  O   O103      1.0  0.2951  0.0188  0.3054  1.0000
  O   O104      1.0  0.9812  0.2763  0.3054  1.0000
  O   O105      1.0  0.7237  0.7049000000000001  0.3054  1.0000
  O   O106      1.0  0.7049000000000001  0.9812  0.8054  1.0000
  O   O107      1.0  0.018800000000000025  0.7237  0.8054  1.0000
  O   O108      1.0  0.2763  0.2951  0.8054  1.0000
  O   O109      1.0  0.7049000000000001  0.9812  0.6946  1.0000
  O   O110      1.0  0.018800000000000025  0.7237  0.6946  1.0000
  O   O111      1.0  0.2763  0.2951  0.6946  1.0000
  O   O112      1.0  0.2951  0.0188  0.1946  1.0000
  O   O113      1.0  0.9812  0.2763  0.1946  1.0000
  O   O114      1.0  0.7237  0.7049000000000001  0.1946  1.0000
  O   O115      1.0  0.4846  0.0504  0.3243  1.0000
  O   O116      1.0  0.9496  0.4342  0.3243  1.0000
  O   O117      1.0  0.5658000000000001  0.5154000000000001  0.3243  1.0000
  O   O118      1.0  0.5154000000000001  0.9496  0.8243  1.0000
  O   O119      1.0  0.05039999999999999  0.5658000000000001  0.8243  1.0000
  O   O120      1.0  0.4342  0.4846  0.8243  1.0000
  O   O121      1.0  0.5154000000000001  0.9496  0.6757  1.0000
  O   O122      1.0  0.05039999999999999  0.5658000000000001  0.6757  1.0000
  O   O123      1.0  0.4342  0.4846  0.6757  1.0000
  O   O124      1.0  0.4846  0.0504  0.17570000000000002  1.0000
  O   O125      1.0  0.9496  0.4342  0.17570000000000002  1.0000
  O   O126      1.0  0.5658000000000001  0.5154000000000001  0.17570000000000002  1.0000
  O   O127      1.0  0.2287  0.7685  0.5096  1.0000
  O   O128      1.0  0.23150000000000004  0.46020000000000005  0.5096  1.0000
  O   O129      1.0  0.5398  0.7713  0.5096  1.0000
  O   O130      1.0  0.7713  0.23150000000000004  0.009600000000000053  1.0000
  O   O131      1.0  0.7685000000000001  0.5398  0.009600000000000053  1.0000
  O   O132      1.0  0.46020000000000005  0.2287  0.009600000000000053  1.0000
  O   O133      1.0  0.7713  0.23150000000000004  0.49039999999999995  1.0000
  O   O134      1.0  0.7685000000000001  0.5398  0.49039999999999995  1.0000
  O   O135      1.0  0.46020000000000005  0.2287  0.49039999999999995  1.0000
  O   O136      1.0  0.2287  0.7685  0.9904  1.0000
  O   O137      1.0  0.23150000000000004  0.46020000000000005  0.9904  1.0000
  O   O138      1.0  0.5398  0.7713  0.9904  1.0000
  O   O139      1.0  0.4829  0.9358  0.4342  1.0000
  O   O140      1.0  0.0642  0.5471  0.4342  1.0000
  O   O141      1.0  0.45289999999999997  0.5171  0.4342  1.0000
  O   O142      1.0  0.5171  0.0642  0.9341999999999999  1.0000
  O   O143      1.0  0.9358  0.45289999999999997  0.9341999999999999  1.0000
  O   O144      1.0  0.5470999999999999  0.48289999999999994  0.9341999999999999  1.0000
  O   O145      1.0  0.5171  0.0642  0.5658000000000001  1.0000
  O   O146      1.0  0.9358  0.45289999999999997  0.5658000000000001  1.0000
  O   O147      1.0  0.5470999999999999  0.48289999999999994  0.5658000000000001  1.0000
  O   O148      1.0  0.4829  0.9358  0.06580000000000003  1.0000
  O   O149      1.0  0.0642  0.5471  0.06580000000000003  1.0000
  O   O150      1.0  0.45289999999999997  0.5171  0.06580000000000003  1.0000
  O   O151      1.0  0.1973  0.8055  0.4362  1.0000
  O   O152      1.0  0.19450000000000003  0.39180000000000004  0.4362  1.0000
  O   O153      1.0  0.6082  0.8027000000000001  0.4362  1.0000
  O   O154      1.0  0.8027  0.1945  0.9361999999999999  1.0000
  O   O155      1.0  0.8055  0.6082  0.9361999999999999  1.0000
  O   O156      1.0  0.39180000000000004  0.19729999999999998  0.9361999999999999  1.0000
  O   O157      1.0  0.8027  0.1945  0.5638000000000001  1.0000
  O   O158      1.0  0.8055  0.6082  0.5638000000000001  1.0000
  O   O159      1.0  0.39180000000000004  0.19729999999999998  0.5638000000000001  1.0000
  O   O160      1.0  0.1973  0.8055  0.06380000000000002  1.0000
  O   O161      1.0  0.19450000000000003  0.39180000000000004  0.06380000000000002  1.0000
  O   O162      1.0  0.6082  0.8027000000000001  0.06380000000000002  1.0000
  O   O163      1.0  0.3803  0.0682  0.25  1.0000
  O   O164      1.0  0.9318  0.31210000000000004  0.25  1.0000
  O   O165      1.0  0.6879  0.6196999999999999  0.25  1.0000
  O   O166      1.0  0.6196999999999999  0.9318  0.75  1.0000
  O   O167      1.0  0.0682  0.6879  0.75  1.0000
  O   O168      1.0  0.31210000000000004  0.3803  0.75  1.0000
  O   O169      1.0  0.040000000000000084  0.7292000000000002  0.3555  1.0000
  O   O170      1.0  0.2708  0.31079999999999997  0.3555  1.0000
  O   O171      1.0  0.6892000000000001  0.96  0.3555  1.0000
  O   O172      1.0  0.9600000000000001  0.2708  0.8554999999999999  1.0000
  O   O173      1.0  0.7292000000000001  0.6892  0.8554999999999999  1.0000
  O   O174      1.0  0.3108  0.04  0.8554999999999999  1.0000
  O   O175      1.0  0.9600000000000001  0.2708  0.6445000000000001  1.0000
  O   O176      1.0  0.7292000000000001  0.6892  0.6445000000000001  1.0000
  O   O177      1.0  0.3108  0.04  0.6445000000000001  1.0000
  O   O178      1.0  0.040000000000000084  0.7292000000000002  0.14450000000000002  1.0000
  O   O179      1.0  0.2708  0.31079999999999997  0.14450000000000002  1.0000
  O   O180      1.0  0.6892000000000001  0.96  0.14450000000000002  1.0000
  O   O181      1.0  0.5088  0.0558  0.4135  1.0000
  O   O182      1.0  0.9442000000000002  0.45300000000000007  0.4135  1.0000
  O   O183      1.0  0.5469999999999999  0.49119999999999997  0.4135  1.0000
  O   O184      1.0  0.49119999999999997  0.9442  0.9135  1.0000
  O   O185      1.0  0.0558  0.5469999999999999  0.9135  1.0000
  O   O186      1.0  0.453  0.5088  0.9135  1.0000
  O   O187      1.0  0.49119999999999997  0.9442  0.5865  1.0000
  O   O188      1.0  0.0558  0.5469999999999999  0.5865  1.0000
  O   O189      1.0  0.453  0.5088  0.5865  1.0000
  O   O190      1.0  0.5088  0.0558  0.08650000000000002  1.0000
  O   O191      1.0  0.9442000000000002  0.45300000000000007  0.08650000000000002  1.0000
  O   O192      1.0  0.5469999999999999  0.49119999999999997  0.08650000000000002  1.0000
  O   O193      1.0  0.2967  0.9955  0.3453  1.0000
  O   O194      1.0  0.004500000000000007  0.3012  0.3453  1.0000
  O   O195      1.0  0.6988000000000001  0.7033  0.3453  1.0000
  O   O196      1.0  0.7033  0.0045  0.8452999999999998  1.0000
  O   O197      1.0  0.9955  0.6988000000000001  0.8452999999999998  1.0000
  O   O198      1.0  0.3012  0.2967  0.8452999999999998  1.0000
  O   O199      1.0  0.7033  0.0045  0.6547000000000001  1.0000
  O   O200      1.0  0.9955  0.6988000000000001  0.6547000000000001  1.0000
  O   O201      1.0  0.3012  0.2967  0.6547000000000001  1.0000
  O   O202      1.0  0.2967  0.9955  0.1547  1.0000
  O   O203      1.0  0.004500000000000007  0.3012  0.1547  1.0000
  O   O204      1.0  0.6988000000000001  0.7033  0.1547  1.0000
  O   O205      1.0  0.17159999999999997  0.9629  0.3352  1.0000
  O   O206      1.0  0.037100000000000015  0.20870000000000002  0.3352  1.0000
  O   O207      1.0  0.7913  0.8284  0.3352  1.0000
  O   O208      1.0  0.8284  0.0371  0.8351999999999999  1.0000
  O   O209      1.0  0.9629  0.7913  0.8351999999999999  1.0000
  O   O210      1.0  0.2087  0.1716  0.8351999999999999  1.0000
  O   O211      1.0  0.8284  0.0371  0.6648000000000001  1.0000
  O   O212      1.0  0.9629  0.7913  0.6648000000000001  1.0000
  O   O213      1.0  0.2087  0.1716  0.6648000000000001  1.0000
  O   O214      1.0  0.17159999999999997  0.9629  0.1648  1.0000
  O   O215      1.0  0.037100000000000015  0.20870000000000002  0.1648  1.0000
  O   O216      1.0  0.7913  0.8284  0.1648  1.0000
  O   O217      1.0  0.36730000000000007  0.9612  0.2912  1.0000
  O   O218      1.0  0.038800000000000015  0.40610000000000007  0.2912  1.0000
  O   O219      1.0  0.5938999999999999  0.6326999999999999  0.2912  1.0000
  O   O220      1.0  0.6326999999999999  0.0388  0.7912  1.0000
  O   O221      1.0  0.9612000000000002  0.5938999999999999  0.7912  1.0000
  O   O222      1.0  0.40610000000000007  0.3673000000000001  0.7912  1.0000
  O   O223      1.0  0.6326999999999999  0.0388  0.7088  1.0000
  O   O224      1.0  0.9612000000000002  0.5938999999999999  0.7088  1.0000
  O   O225      1.0  0.40610000000000007  0.3673000000000001  0.7088  1.0000
  O   O226      1.0  0.36730000000000007  0.9612  0.20879999999999999  1.0000
  O   O227      1.0  0.038800000000000015  0.40610000000000007  0.20879999999999999  1.0000
  O   O228      1.0  0.5938999999999999  0.6326999999999999  0.20879999999999999  1.0000
  O   O229      1.0  0.048700000000000056  0.6969000000000002  0.3902  1.0000
  O   O230      1.0  0.3031  0.35180000000000006  0.3902  1.0000
  O   O231      1.0  0.6482  0.9513  0.3902  1.0000
  O   O232      1.0  0.9513  0.3031  0.8902  1.0000
  O   O233      1.0  0.6969000000000001  0.6482  0.8902  1.0000
  O   O234      1.0  0.3518  0.0487  0.8902  1.0000
  O   O235      1.0  0.9513  0.3031  0.6098  1.0000
  O   O236      1.0  0.6969000000000001  0.6482  0.6098  1.0000
  O   O237      1.0  0.3518  0.0487  0.6098  1.0000
  O   O238      1.0  0.048700000000000056  0.6969000000000002  0.10980000000000001  1.0000
  O   O239      1.0  0.3031  0.35180000000000006  0.10980000000000001  1.0000
  O   O240      1.0  0.6482  0.9513  0.10980000000000001  1.0000
  O   O241      1.0  0.4445000000000001  0.7895  0.4842  1.0000
  O   O242      1.0  0.2105  0.655  0.4842  1.0000
  O   O243      1.0  0.34500000000000003  0.5554999999999999  0.4842  1.0000
  O   O244      1.0  0.5554999999999999  0.2105  0.9842000000000001  1.0000
  O   O245      1.0  0.7895000000000001  0.345  0.9842000000000001  1.0000
  O   O246      1.0  0.655  0.4445000000000001  0.9842000000000001  1.0000
  O   O247      1.0  0.5554999999999999  0.2105  0.5158  1.0000
  O   O248      1.0  0.7895000000000001  0.345  0.5158  1.0000
  O   O249      1.0  0.655  0.4445000000000001  0.5158  1.0000
  O   O250      1.0  0.4445000000000001  0.7895  0.01579999999999998  1.0000
  O   O251      1.0  0.2105  0.655  0.01579999999999998  1.0000
  O   O252      1.0  0.34500000000000003  0.5554999999999999  0.01579999999999998  1.0000
  O   O253      1.0  0.9551999999999999  0.5378999999999999  0.3524  1.0000
  O   O254      1.0  0.46210000000000007  0.41730000000000006  0.3524  1.0000
  O   O255      1.0  0.5827  0.04480000000000005  0.3524  1.0000
  O   O256      1.0  0.04480000000000005  0.46210000000000007  0.8524  1.0000
  O   O257      1.0  0.5378999999999999  0.5827  0.8524  1.0000
  O   O258      1.0  0.4173  0.9551999999999999  0.8524  1.0000
  O   O259      1.0  0.04480000000000005  0.46210000000000007  0.6476  1.0000
  O   O260      1.0  0.5378999999999999  0.5827  0.6476  1.0000
  O   O261      1.0  0.4173  0.9551999999999999  0.6476  1.0000
  O   O262      1.0  0.9551999999999999  0.5378999999999999  0.1476  1.0000
  O   O263      1.0  0.46210000000000007  0.41730000000000006  0.1476  1.0000
  O   O264      1.0  0.5827  0.04480000000000005  0.1476  1.0000
  O   O265      1.0  0.4099  0.1036  0.3367  1.0000
  O   O266      1.0  0.8964  0.3063  0.3367  1.0000
  O   O267      1.0  0.6937  0.5901000000000001  0.3367  1.0000
  O   O268      1.0  0.5901000000000001  0.8964  0.8367  1.0000
  O   O269      1.0  0.1036  0.6937  0.8367  1.0000
  O   O270      1.0  0.3063  0.4099  0.8367  1.0000
  O   O271      1.0  0.5901000000000001  0.8964  0.6633  1.0000
  O   O272      1.0  0.1036  0.6937  0.6633  1.0000
  O   O273      1.0  0.3063  0.4099  0.6633  1.0000
  O   O274      1.0  0.4099  0.1036  0.1633  1.0000
  O   O275      1.0  0.8964  0.3063  0.1633  1.0000
  O   O276      1.0  0.6937  0.5901000000000001  0.1633  1.0000
  O   O277      1.0  0.4004000000000001  0.8139  0.4061  1.0000
  O   O278      1.0  0.18610000000000002  0.5865  0.4061  1.0000
  O   O279      1.0  0.4135  0.5995999999999999  0.4061  1.0000
  O   O280      1.0  0.5995999999999999  0.18610000000000002  0.9061  1.0000
  O   O281      1.0  0.8139  0.4135  0.9061  1.0000
  O   O282      1.0  0.5865  0.40040000000000003  0.9061  1.0000
  O   O283      1.0  0.5995999999999999  0.18610000000000002  0.5939  1.0000
  O   O284      1.0  0.8139  0.4135  0.5939  1.0000
  O   O285      1.0  0.5865  0.40040000000000003  0.5939  1.0000
  O   O286      1.0  0.4004000000000001  0.8139  0.09389999999999998  1.0000
  O   O287      1.0  0.18610000000000002  0.5865  0.09389999999999998  1.0000
  O   O288      1.0  0.4135  0.5995999999999999  0.09389999999999998  1.0000
  O   O289      1.0  0.09720000000000005  0.8191  0.4132  1.0000
  O   O290      1.0  0.18090000000000003  0.2781  0.4132  1.0000
  O   O291      1.0  0.7219  0.9028000000000002  0.4132  1.0000
  O   O292      1.0  0.9028000000000002  0.18090000000000003  0.9132  1.0000
  O   O293      1.0  0.8191  0.7219  0.9132  1.0000
  O   O294      1.0  0.2781  0.0972  0.9132  1.0000
  O   O295      1.0  0.9028000000000002  0.18090000000000003  0.5868  1.0000
  O   O296      1.0  0.8191  0.7219  0.5868  1.0000
  O   O297      1.0  0.2781  0.0972  0.5868  1.0000
  O   O298      1.0  0.09720000000000005  0.8191  0.08679999999999999  1.0000
  O   O299      1.0  0.18090000000000003  0.2781  0.08679999999999999  1.0000
  O   O300      1.0  0.7219  0.9028000000000002  0.08679999999999999  1.0000
  O   O301      1.0  0.14739999999999995  0.7461  0.4401  1.0000
  O   O302      1.0  0.2539  0.4013  0.4401  1.0000
  O   O303      1.0  0.5987  0.8526  0.4401  1.0000
  O   O304      1.0  0.8526  0.2539  0.9400999999999999  1.0000
  O   O305      1.0  0.7461  0.5987  0.9400999999999999  1.0000
  O   O306      1.0  0.4013  0.14739999999999998  0.9400999999999999  1.0000
  O   O307      1.0  0.8526  0.2539  0.5599000000000001  1.0000
  O   O308      1.0  0.7461  0.5987  0.5599000000000001  1.0000
  O   O309      1.0  0.4013  0.14739999999999998  0.5599000000000001  1.0000
  O   O310      1.0  0.14739999999999995  0.7461  0.05990000000000001  1.0000
  O   O311      1.0  0.2539  0.4013  0.05990000000000001  1.0000
  O   O312      1.0  0.5987  0.8526  0.05990000000000001  1.0000
  O   O313      1.0  0.46340000000000003  0.9353000000000001  0.3444  1.0000
  O   O314      1.0  0.06470000000000001  0.5281  0.3444  1.0000
  O   O315      1.0  0.4719  0.5366  0.3444  1.0000
  O   O316      1.0  0.5366  0.0647  0.8444  1.0000
  O   O317      1.0  0.9353  0.47190000000000004  0.8444  1.0000
  O   O318      1.0  0.5281  0.4634  0.8444  1.0000
  O   O319      1.0  0.5366  0.0647  0.6556  1.0000
  O   O320      1.0  0.9353  0.47190000000000004  0.6556  1.0000
  O   O321      1.0  0.5281  0.4634  0.6556  1.0000
  O   O322      1.0  0.46340000000000003  0.9353000000000001  0.15560000000000002  1.0000
  O   O323      1.0  0.06470000000000001  0.5281  0.15560000000000002  1.0000
  O   O324      1.0  0.4719  0.5366  0.15560000000000002  1.0000
  O   O325      1.0  0.3136  0.8399  0.444  1.0000
  O   O326      1.0  0.16010000000000002  0.47370000000000007  0.444  1.0000
  O   O327      1.0  0.5263  0.6864  0.444  1.0000
  O   O328      1.0  0.6864  0.1601  0.944  1.0000
  O   O329      1.0  0.8399000000000001  0.5263  0.944  1.0000
  O   O330      1.0  0.4737  0.3136  0.944  1.0000
  O   O331      1.0  0.6864  0.1601  0.556  1.0000
  O   O332      1.0  0.8399000000000001  0.5263  0.556  1.0000
  O   O333      1.0  0.4737  0.3136  0.556  1.0000
  O   O334      1.0  0.3136  0.8399  0.055999999999999994  1.0000
  O   O335      1.0  0.16010000000000002  0.47370000000000007  0.055999999999999994  1.0000
  O   O336      1.0  0.5263  0.6864  0.055999999999999994  1.0000
  O   O337      1.0  0.24189999999999998  0.7267  0.4068  1.0000
  O   O338      1.0  0.2733  0.5152  0.4068  1.0000
  O   O339      1.0  0.48480000000000006  0.7581000000000001  0.4068  1.0000
  O   O340      1.0  0.7581  0.2733  0.9068  1.0000
  O   O341      1.0  0.7267  0.48480000000000006  0.9068  1.0000
  O   O342      1.0  0.5152  0.24189999999999998  0.9068  1.0000
  O   O343      1.0  0.7581  0.2733  0.5932  1.0000
  O   O344      1.0  0.7267  0.48480000000000006  0.5932  1.0000
  O   O345      1.0  0.5152  0.24189999999999998  0.5932  1.0000
  O   O346      1.0  0.24189999999999998  0.7267  0.0932  1.0000
  O   O347      1.0  0.2733  0.5152  0.0932  1.0000
  O   O348      1.0  0.48480000000000006  0.7581000000000001  0.0932  1.0000
  O   O349      1.0  0.16510000000000005  0.7594  0.3525  1.0000
  O   O350      1.0  0.2406  0.40570000000000006  0.3525  1.0000
  O   O351      1.0  0.5942999999999999  0.8349  0.3525  1.0000
  O   O352      1.0  0.8349000000000001  0.2406  0.8525  1.0000
  O   O353      1.0  0.7594  0.5942999999999999  0.8525  1.0000
  O   O354      1.0  0.40570000000000006  0.16510000000000002  0.8525  1.0000
  O   O355      1.0  0.8349000000000001  0.2406  0.6475  1.0000
  O   O356      1.0  0.7594  0.5942999999999999  0.6475  1.0000
  O   O357      1.0  0.40570000000000006  0.16510000000000002  0.6475  1.0000
  O   O358      1.0  0.16510000000000005  0.7594  0.14750000000000002  1.0000
  O   O359      1.0  0.2406  0.40570000000000006  0.14750000000000002  1.0000
  O   O360      1.0  0.5942999999999999  0.8349  0.14750000000000002  1.0000
  O   O361      1.0  0.21169999999999994  0.8888999999999999  0.37449999999999994  1.0000
  O   O362      1.0  0.11110000000000002  0.3228  0.37449999999999994  1.0000
  O   O363      1.0  0.6772000000000001  0.7883  0.37449999999999994  1.0000
  O   O364      1.0  0.7883  0.1111  0.8744999999999999  1.0000
  O   O365      1.0  0.8889  0.6772  0.8744999999999999  1.0000
  O   O366      1.0  0.3228  0.2117  0.8744999999999999  1.0000
  O   O367      1.0  0.7883  0.1111  0.6255000000000001  1.0000
  O   O368      1.0  0.8889  0.6772  0.6255000000000001  1.0000
  O   O369      1.0  0.3228  0.2117  0.6255000000000001  1.0000
  O   O370      1.0  0.21169999999999994  0.8888999999999999  0.12550000000000006  1.0000
  O   O371      1.0  0.11110000000000002  0.3228  0.12550000000000006  1.0000
  O   O372      1.0  0.6772000000000001  0.7883  0.12550000000000006  1.0000
  O   O373      1.0  0.04959999999999997  0.6384  0.3131  1.0000
  O   O374      1.0  0.36160000000000003  0.4112  0.3131  1.0000
  O   O375      1.0  0.5888000000000001  0.9504000000000001  0.3131  1.0000
  O   O376      1.0  0.9504  0.36160000000000003  0.8130999999999999  1.0000
  O   O377      1.0  0.6384  0.5888  0.8130999999999999  1.0000
  O   O378      1.0  0.4112  0.04959999999999997  0.8130999999999999  1.0000
  O   O379      1.0  0.9504  0.36160000000000003  0.6869000000000001  1.0000
  O   O380      1.0  0.6384  0.5888  0.6869000000000001  1.0000
  O   O381      1.0  0.4112  0.04959999999999997  0.6869000000000001  1.0000
  O   O382      1.0  0.04959999999999997  0.6384  0.1869  1.0000
  O   O383      1.0  0.36160000000000003  0.4112  0.1869  1.0000
  O   O384      1.0  0.5888000000000001  0.9504000000000001  0.1869  1.0000
  O   O385      1.0  0.1235  0.8367  0.3234  1.0000
  O   O386      1.0  0.1633  0.2868  0.3234  1.0000
  O   O387      1.0  0.7132000000000001  0.8765000000000001  0.3234  1.0000
  O   O388      1.0  0.8765000000000002  0.1633  0.8234  1.0000
  O   O389      1.0  0.8367  0.7132000000000001  0.8234  1.0000
  O   O390      1.0  0.2868  0.12349999999999998  0.8234  1.0000
  O   O391      1.0  0.8765000000000002  0.1633  0.6766  1.0000
  O   O392      1.0  0.8367  0.7132000000000001  0.6766  1.0000
  O   O393      1.0  0.2868  0.12349999999999998  0.6766  1.0000
  O   O394      1.0  0.1235  0.8367  0.17659999999999998  1.0000
  O   O395      1.0  0.1633  0.2868  0.17659999999999998  1.0000
  O   O396      1.0  0.7132000000000001  0.8765000000000001  0.17659999999999998  1.0000
  O   O397      1.0  0.8936000000000001  0.6328  0.25  1.0000
  O   O398      1.0  0.3672  0.26080000000000003  0.25  1.0000
  O   O399      1.0  0.7392  0.10640000000000001  0.25  1.0000
  O   O400      1.0  0.10640000000000001  0.3672  0.75  1.0000
  O   O401      1.0  0.6328000000000001  0.7392  0.75  1.0000
  O   O402      1.0  0.26080000000000003  0.8936  0.75  1.0000
  O   O403      1.0  0.939  0.7450000000000001  0.25  1.0000
  O   O404      1.0  0.255  0.194  0.25  1.0000
  O   O405      1.0  0.806  0.06100000000000001  0.25  1.0000
  O   O406      1.0  0.06100000000000001  0.255  0.75  1.0000
  O   O407      1.0  0.745  0.806  0.75  1.0000
  O   O408      1.0  0.19400000000000003  0.939  0.75  1.0000
  O   O409      1.0  0.998  0.6966  0.2807  1.0000
  O   O410      1.0  0.3034  0.3014  0.2807  1.0000
  O   O411      1.0  0.6986  0.0020000000000000074  0.2807  1.0000
  O   O412      1.0  0.0020000000000000074  0.3034  0.7807  1.0000
  O   O413      1.0  0.6966  0.6985999999999999  0.7807  1.0000
  O   O414      1.0  0.3014  0.998  0.7807  1.0000
  O   O415      1.0  0.0020000000000000074  0.3034  0.7193  1.0000
  O   O416      1.0  0.6966  0.6985999999999999  0.7193  1.0000
  O   O417      1.0  0.3014  0.998  0.7193  1.0000
  O   O418      1.0  0.998  0.6966  0.2193  1.0000
  O   O419      1.0  0.3034  0.3014  0.2193  1.0000
  O   O420      1.0  0.6986  0.0020000000000000074  0.2193  1.0000
  O   O421      1.0  0.9324000000000001  0.5699000000000001  0.2845  1.0000
  O   O422      1.0  0.43010000000000004  0.36250000000000004  0.2845  1.0000
  O   O423      1.0  0.6375  0.0676  0.2845  1.0000
  O   O424      1.0  0.0676  0.4301  0.7845  1.0000
  O   O425      1.0  0.5699000000000001  0.6375  0.7845  1.0000
  O   O426      1.0  0.3625  0.9324  0.7845  1.0000
  O   O427      1.0  0.0676  0.4301  0.7155  1.0000
  O   O428      1.0  0.5699000000000001  0.6375  0.7155  1.0000
  O   O429      1.0  0.3625  0.9324  0.7155  1.0000
  O   O430      1.0  0.9324000000000001  0.5699000000000001  0.21550000000000002  1.0000
  O   O431      1.0  0.43010000000000004  0.36250000000000004  0.21550000000000002  1.0000
  O   O432      1.0  0.6375  0.0676  0.21550000000000002  1.0000
  O   O433      1.0  0.827  0.5289999999999999  0.25  1.0000
  O   O434      1.0  0.47100000000000003  0.298  0.25  1.0000
  O   O435      1.0  0.702  0.17300000000000004  0.25  1.0000
  O   O436      1.0  0.17300000000000004  0.47100000000000003  0.75  1.0000
  O   O437      1.0  0.529  0.7020000000000001  0.75  1.0000
  O   O438      1.0  0.298  0.827  0.75  1.0000
  O   O439      1.0  0.9232  0.6263000000000001  0.3631  1.0000
  O   O440      1.0  0.37370000000000003  0.2969  0.3631  1.0000
  O   O441      1.0  0.7031000000000001  0.0768  0.3631  1.0000
  O   O442      1.0  0.0768  0.3737  0.8631  1.0000
  O   O443      1.0  0.6263000000000002  0.7031000000000001  0.8631  1.0000
  O   O444      1.0  0.29689999999999994  0.9231999999999999  0.8631  1.0000
  O   O445      1.0  0.0768  0.3737  0.6369  1.0000
  O   O446      1.0  0.6263000000000002  0.7031000000000001  0.6369  1.0000
  O   O447      1.0  0.29689999999999994  0.9231999999999999  0.6369  1.0000
  O   O448      1.0  0.9232  0.6263000000000001  0.13690000000000002  1.0000
  O   O449      1.0  0.37370000000000003  0.2969  0.13690000000000002  1.0000
  O   O450      1.0  0.7031000000000001  0.0768  0.13690000000000002  1.0000
  O   O451      1.0  0.11370000000000006  0.7787000000000001  0.25  1.0000
  O   O452      1.0  0.2213  0.335  0.25  1.0000
  O   O453      1.0  0.6649999999999999  0.8862999999999999  0.25  1.0000
  O   O454      1.0  0.8863000000000001  0.2213  0.75  1.0000
  O   O455      1.0  0.7787  0.665  0.75  1.0000
  O   O456      1.0  0.335  0.11370000000000001  0.75  1.0000
  O   O457      1.0  0.4355000000000001  0.9238000000000001  0.25  1.0000
  O   O458      1.0  0.0762  0.5117  0.25  1.0000
  O   O459      1.0  0.48829999999999996  0.5645  0.25  1.0000
  O   O460      1.0  0.5645  0.0762  0.75  1.0000
  O   O461      1.0  0.9238  0.48829999999999996  0.75  1.0000
  O   O462      1.0  0.5117  0.43550000000000005  0.75  1.0000
  O   O463      1.0  0.3068  0.8359  0.25  1.0000
  O   O464      1.0  0.16409999999999997  0.47089999999999993  0.25  1.0000
  O   O465      1.0  0.5291  0.6932  0.25  1.0000
  O   O466      1.0  0.6932  0.1641  0.75  1.0000
  O   O467      1.0  0.8359000000000001  0.5291  0.75  1.0000
  O   O468      1.0  0.4709  0.3068  0.75  1.0000
  O   O469      1.0  0.5158  0.0187  0.25  1.0000
  O   O470      1.0  0.9813000000000001  0.4971000000000001  0.25  1.0000
  O   O471      1.0  0.5028999999999999  0.48419999999999996  0.25  1.0000
  O   O472      1.0  0.48419999999999996  0.9813  0.75  1.0000
  O   O473      1.0  0.018700000000000012  0.5028999999999999  0.75  1.0000
  O   O474      1.0  0.49710000000000004  0.5158  0.75  1.0000
  O   O475      1.0  0.3333  0.6667000000000001  0.4313  1.0000
  O   O476      1.0  0.6667000000000001  0.3333  0.9313  1.0000
  O   O477      1.0  0.6667000000000001  0.3333  0.5687  1.0000
  O   O478      1.0  0.3333  0.6667000000000001  0.06869999999999998  1.0000
  O   O479      1.0  0.2651  0.8072999999999999  0.5896  1.0000
  O   O480      1.0  0.19270000000000004  0.45780000000000004  0.5896  1.0000
  O   O481      1.0  0.5422000000000001  0.7349000000000001  0.5896  1.0000
  O   O482      1.0  0.7349  0.19270000000000004  0.08959999999999989  1.0000
  O   O483      1.0  0.8072999999999999  0.5422  0.08959999999999989  1.0000
  O   O484      1.0  0.4578000000000001  0.2651  0.08959999999999989  1.0000
  O   O485      1.0  0.7349  0.19270000000000004  0.4104  1.0000
  O   O486      1.0  0.8072999999999999  0.5422  0.4104  1.0000
  O   O487      1.0  0.4578000000000001  0.2651  0.4104  1.0000
  O   O488      1.0  0.2651  0.8072999999999999  0.9104  1.0000
  O   O489      1.0  0.19270000000000004  0.45780000000000004  0.9104  1.0000
  O   O490      1.0  0.5422000000000001  0.7349000000000001  0.9104  1.0000
  O   O491      1.0  0.10870000000000002  0.6241  0.25  1.0000
  O   O492      1.0  0.37589999999999996  0.4846  0.25  1.0000
  O   O493      1.0  0.5154000000000001  0.8913000000000001  0.25  1.0000
  O   O494      1.0  0.8913000000000001  0.3759  0.75  1.0000
  O   O495      1.0  0.6241  0.5154  0.75  1.0000
  O   O496      1.0  0.4846000000000001  0.10870000000000002  0.75  1.0000
  O   O497      1.0  0.3105  0.8781  0.3686  1.0000
  O   O498      1.0  0.1219  0.4324  0.3686  1.0000
  O   O499      1.0  0.5676  0.6895  0.3686  1.0000
  O   O500      1.0  0.6895000000000001  0.1219  0.8686  1.0000
  O   O501      1.0  0.8781  0.5676  0.8686  1.0000
  O   O502      1.0  0.4324  0.3105  0.8686  1.0000
  O   O503      1.0  0.6895000000000001  0.1219  0.6314  1.0000
  O   O504      1.0  0.8781  0.5676  0.6314  1.0000
  O   O505      1.0  0.4324  0.3105  0.6314  1.0000
  O   O506      1.0  0.3105  0.8781  0.13140000000000002  1.0000
  O   O507      1.0  0.1219  0.4324  0.13140000000000002  1.0000
  O   O508      1.0  0.5676  0.6895  0.13140000000000002  1.0000
  O   O509      1.0  0.11829999999999997  0.7875  0.5127  1.0000
  O   O510      1.0  0.2125  0.3308  0.5127  1.0000
  O   O511      1.0  0.6692000000000001  0.8817  0.5127  1.0000
  O   O512      1.0  0.8817  0.2125  0.012700000000000156  1.0000
  O   O513      1.0  0.7875000000000001  0.6692  0.012700000000000156  1.0000
  O   O514      1.0  0.3308  0.11829999999999999  0.012700000000000156  1.0000
  O   O515      1.0  0.8817  0.2125  0.4873  1.0000
  O   O516      1.0  0.7875000000000001  0.6692  0.4873  1.0000
  O   O517      1.0  0.3308  0.11829999999999999  0.4873  1.0000
  O   O518      1.0  0.11829999999999997  0.7875  0.9873  1.0000
  O   O519      1.0  0.2125  0.3308  0.9873  1.0000
  O   O520      1.0  0.6692000000000001  0.8817  0.9873  1.0000
  O   O521      1.0  0.2874  0.0635  0.3998  1.0000
  O   O522      1.0  0.9365  0.2239  0.3998  1.0000
  O   O523      1.0  0.7761  0.7126  0.3998  1.0000
  O   O524      1.0  0.7126  0.9365000000000001  0.8997999999999999  1.0000
  O   O525      1.0  0.06350000000000001  0.7761  0.8997999999999999  1.0000
  O   O526      1.0  0.22390000000000002  0.2874  0.8997999999999999  1.0000
  O   O527      1.0  0.7126  0.9365000000000001  0.6002000000000001  1.0000
  O   O528      1.0  0.06350000000000001  0.7761  0.6002000000000001  1.0000
  O   O529      1.0  0.22390000000000002  0.2874  0.6002000000000001  1.0000
  O   O530      1.0  0.2874  0.0635  0.10020000000000001  1.0000
  O   O531      1.0  0.9365  0.2239  0.10020000000000001  1.0000
  O   O532      1.0  0.7761  0.7126  0.10020000000000001  1.0000
  O   O533      1.0  0.3088  0.7206  0.3468  1.0000
  O   O534      1.0  0.2794  0.5882000000000001  0.3468  1.0000
  O   O535      1.0  0.41179999999999994  0.6912  0.3468  1.0000
  O   O536      1.0  0.6912  0.2794  0.8468  1.0000
  O   O537      1.0  0.7206  0.41179999999999994  0.8468  1.0000
  O   O538      1.0  0.5882000000000001  0.3088  0.8468  1.0000
  O   O539      1.0  0.6912  0.2794  0.6532  1.0000
  O   O540      1.0  0.7206  0.41179999999999994  0.6532  1.0000
  O   O541      1.0  0.5882000000000001  0.3088  0.6532  1.0000
  O   O542      1.0  0.3088  0.7206  0.1532  1.0000
  O   O543      1.0  0.2794  0.5882000000000001  0.1532  1.0000
  O   O544      1.0  0.41179999999999994  0.6912  0.1532  1.0000
  O   O545      1.0  0.3575  0.9064  0.5633  1.0000
  O   O546      1.0  0.09360000000000004  0.45110000000000006  0.5633  1.0000
  O   O547      1.0  0.5488999999999999  0.6425000000000001  0.5633  1.0000
  O   O548      1.0  0.6425000000000001  0.09360000000000002  0.06329999999999991  1.0000
  O   O549      1.0  0.9064  0.5488999999999999  0.06329999999999991  1.0000
  O   O550      1.0  0.4511  0.3575  0.06329999999999991  1.0000
  O   O551      1.0  0.6425000000000001  0.09360000000000002  0.4367  1.0000
  O   O552      1.0  0.9064  0.5488999999999999  0.4367  1.0000
  O   O553      1.0  0.4511  0.3575  0.4367  1.0000
  O   O554      1.0  0.3575  0.9064  0.9367  1.0000
  O   O555      1.0  0.09360000000000004  0.45110000000000006  0.9367  1.0000
  O   O556      1.0  0.5488999999999999  0.6425000000000001  0.9367  1.0000
  O   O557      1.0  0.3677  0.8289  0.3138  1.0000
  O   O558      1.0  0.1711  0.5388000000000001  0.3138  1.0000
  O   O559      1.0  0.4612  0.6323  0.3138  1.0000
  O   O560      1.0  0.6323  0.1711  0.8138000000000001  1.0000
  O   O561      1.0  0.8289000000000001  0.46119999999999994  0.8138000000000001  1.0000
  O   O562      1.0  0.5388000000000001  0.3677  0.8138000000000001  1.0000
  O   O563      1.0  0.6323  0.1711  0.6861999999999999  1.0000
  O   O564      1.0  0.8289000000000001  0.46119999999999994  0.6861999999999999  1.0000
  O   O565      1.0  0.5388000000000001  0.3677  0.6861999999999999  1.0000
  O   O566      1.0  0.3677  0.8289  0.18619999999999998  1.0000
  O   O567      1.0  0.1711  0.5388000000000001  0.18619999999999998  1.0000
  O   O568      1.0  0.4612  0.6323  0.18619999999999998  1.0000
  O   O569      1.0  0.011400000000000028  0.8180000000000002  0.3152  1.0000
  O   O570      1.0  0.182  0.1934  0.3152  1.0000
  O   O571      1.0  0.8066  0.9886  0.3152  1.0000
  O   O572      1.0  0.9886  0.182  0.8151999999999998  1.0000
  O   O573      1.0  0.8180000000000001  0.8066  0.8151999999999998  1.0000
  O   O574      1.0  0.1934  0.011399999999999997  0.8151999999999998  1.0000
  O   O575      1.0  0.9886  0.182  0.6848000000000001  1.0000
  O   O576      1.0  0.8180000000000001  0.8066  0.6848000000000001  1.0000
  O   O577      1.0  0.1934  0.011399999999999997  0.6848000000000001  1.0000
  O   O578      1.0  0.011400000000000028  0.8180000000000002  0.18480000000000002  1.0000
  O   O579      1.0  0.182  0.1934  0.18480000000000002  1.0000
  O   O580      1.0  0.8066  0.9886  0.18480000000000002  1.0000
  O   O581      1.0  0.28889999999999993  0.9158  0.4771  1.0000
  O   O582      1.0  0.0842  0.37309999999999993  0.4771  1.0000
  O   O583      1.0  0.6269  0.7111000000000001  0.4771  1.0000
  O   O584      1.0  0.7111000000000001  0.0842  0.9771000000000001  1.0000
  O   O585      1.0  0.9158  0.6269  0.9771000000000001  1.0000
  O   O586      1.0  0.3731  0.28889999999999993  0.9771000000000001  1.0000
  O   O587      1.0  0.7111000000000001  0.0842  0.5228999999999999  1.0000
  O   O588      1.0  0.9158  0.6269  0.5228999999999999  1.0000
  O   O589      1.0  0.3731  0.28889999999999993  0.5228999999999999  1.0000
  O   O590      1.0  0.28889999999999993  0.9158  0.022899999999999976  1.0000
  O   O591      1.0  0.0842  0.37309999999999993  0.022899999999999976  1.0000
  O   O592      1.0  0.6269  0.7111000000000001  0.022899999999999976  1.0000
  O   O593      1.0  0.4721000000000001  0.8305  0.5563  1.0000
  O   O594      1.0  0.1695  0.6416000000000001  0.5563  1.0000
  O   O595      1.0  0.35839999999999994  0.5278999999999999  0.5563  1.0000
  O   O596      1.0  0.5278999999999999  0.1695  0.05630000000000002  1.0000
  O   O597      1.0  0.8305000000000001  0.3584  0.05630000000000002  1.0000
  O   O598      1.0  0.6416000000000002  0.4721000000000001  0.05630000000000002  1.0000
  O   O599      1.0  0.5278999999999999  0.1695  0.4437  1.0000
  O   O600      1.0  0.8305000000000001  0.3584  0.4437  1.0000
  O   O601      1.0  0.6416000000000002  0.4721000000000001  0.4437  1.0000
  O   O602      1.0  0.4721000000000001  0.8305  0.9437  1.0000
  O   O603      1.0  0.1695  0.6416000000000001  0.9437  1.0000
  O   O604      1.0  0.35839999999999994  0.5278999999999999  0.9437  1.0000
  O   O605      1.0  0.05699999999999999  0.915  0.25  1.0000
  O   O606      1.0  0.085  0.14200000000000002  0.25  1.0000
  O   O607      1.0  0.858  0.9430000000000001  0.25  1.0000
  O   O608      1.0  0.943  0.085  0.75  1.0000
  O   O609      1.0  0.915  0.8580000000000001  0.75  1.0000
  O   O610      1.0  0.14200000000000002  0.057  0.75  1.0000
  O   O611      1.0  0.5744  0.9506  0.4974  1.0000
  O   O612      1.0  0.0494  0.6238  0.4974  1.0000
  O   O613      1.0  0.37620000000000003  0.4256  0.4974  1.0000
  O   O614      1.0  0.42560000000000003  0.049400000000000006  0.9974  1.0000
  O   O615      1.0  0.9506  0.3762  0.9974  1.0000
  O   O616      1.0  0.6238000000000001  0.5744  0.9974  1.0000
  O   O617      1.0  0.42560000000000003  0.049400000000000006  0.5025999999999999  1.0000
  O   O618      1.0  0.9506  0.3762  0.5025999999999999  1.0000
  O   O619      1.0  0.6238000000000001  0.5744  0.5025999999999999  1.0000
  O   O620      1.0  0.5744  0.9506  0.002599999999999991  1.0000
  O   O621      1.0  0.0494  0.6238  0.002599999999999991  1.0000
  O   O622      1.0  0.37620000000000003  0.4256  0.002599999999999991  1.0000
  O   O623      1.0  0.006699999999999983  0.6894  0.4599  1.0000
  O   O624      1.0  0.3106  0.3173  0.4599  1.0000
  O   O625      1.0  0.6827  0.9933  0.4599  1.0000
  O   O626      1.0  0.9933000000000001  0.3106  0.9599  1.0000
  O   O627      1.0  0.6894  0.6827  0.9599  1.0000
  O   O628      1.0  0.3173000000000001  0.006700000000000015  0.9599  1.0000
  O   O629      1.0  0.9933000000000001  0.3106  0.5401  1.0000
  O   O630      1.0  0.6894  0.6827  0.5401  1.0000
  O   O631      1.0  0.3173000000000001  0.006700000000000015  0.5401  1.0000
  O   O632      1.0  0.006699999999999983  0.6894  0.040100000000000025  1.0000
  O   O633      1.0  0.3106  0.3173  0.040100000000000025  1.0000
  O   O634      1.0  0.6827  0.9933  0.040100000000000025  1.0000
