#------------------------------------------------------------------------------
#$Date: 2017-02-14 06:47:18 +0200 (Tue, 14 Feb 2017) $
#$Revision: 192050 $
#$URL: file:///home/coder/svn-repositories/cod/cif/1/54/52/1545269.cif $
#------------------------------------------------------------------------------
#
# This file is available in the Crystallography Open Database (COD),
# http://www.crystallography.net/
#
# All data on this site have been placed in the public domain by the
# contributors.
#
data_1545269
loop_
_publ_author_name
'Zhao, Nian'
'Li, Ping'
'Mu, Xin'
'Liu, Chuanfang'
'Sun, Fuxing'
'Zhu, Guangshan'
_publ_section_title
;
 Facile synthesis of an ultra-stable metal-organic framework with
 excellent acid and base resistance
;
_journal_name_full               'Faraday Discuss.'
_journal_paper_doi               10.1039/C7FD00017K
_journal_year                    2017
_chemical_formula_sum            'C12 H5 Cu2 N9'
_chemical_formula_weight         402.35
_space_group_crystal_system      tetragonal
_space_group_IT_number           98
_space_group_name_Hall           'I 4bw 2bw'
_space_group_name_H-M_alt        'I 41 2 2'
_symmetry_space_group_name_Hall  'I 4bw 2bw'
_symmetry_space_group_name_H-M   'I 41 2 2'
_atom_sites_solution_hydrogens   geom
_audit_creation_method           SHELXL-2014/7
_audit_update_record
;
2017-01-16 deposited with the CCDC.
2017-02-13 downloaded from the CCDC.
;
_cell_angle_alpha                90
_cell_angle_beta                 90
_cell_angle_gamma                90
_cell_formula_units_Z            4
_cell_length_a                   9.281(17)
_cell_length_b                   9.281(17)
_cell_length_c                   22.07(5)
_cell_measurement_reflns_used    885
_cell_measurement_temperature    293(2)
_cell_measurement_theta_max      26.79
_cell_measurement_theta_min      2.38
_cell_volume                     1901(7)
_computing_structure_refinement  'SHELXL-2014/7 (Sheldrick, 2014)'
_diffrn_ambient_temperature      293(2)
_diffrn_measured_fraction_theta_full 0.998
_diffrn_measured_fraction_theta_max 0.992
_diffrn_measurement_device_type  CCD
_diffrn_radiation_type           MoK\a
_diffrn_radiation_wavelength     0.71073
_diffrn_reflns_av_R_equivalents  0.1513
_diffrn_reflns_av_unetI/netI     0.0915
_diffrn_reflns_Laue_measured_fraction_full 0.998
_diffrn_reflns_Laue_measured_fraction_max 0.992
_diffrn_reflns_limit_h_max       12
_diffrn_reflns_limit_h_min       -10
_diffrn_reflns_limit_k_max       12
_diffrn_reflns_limit_k_min       -12
_diffrn_reflns_limit_l_max       29
_diffrn_reflns_limit_l_min       -26
_diffrn_reflns_number            5753
_diffrn_reflns_point_group_measured_fraction_full 0.999
_diffrn_reflns_point_group_measured_fraction_max 0.993
_diffrn_reflns_theta_full        25.242
_diffrn_reflns_theta_max         28.517
_diffrn_reflns_theta_min         3.104
_exptl_absorpt_coefficient_mu    2.247
_exptl_absorpt_correction_type   multi-scan
_exptl_absorpt_process_details   sadabs
_exptl_crystal_colour            colorless
_exptl_crystal_density_diffrn    1.406
_exptl_crystal_description       Block
_exptl_crystal_F_000             792
_exptl_crystal_size_max          0.150
_exptl_crystal_size_mid          0.100
_exptl_crystal_size_min          0.100
_exptl_transmission_factor_max   0.864
_exptl_transmission_factor_min   0.864
_refine_diff_density_max         1.738
_refine_diff_density_min         -1.168
_refine_diff_density_rms         0.177
_refine_ls_abs_structure_details
;
 Refined as an inversion twin.
;
_refine_ls_abs_structure_Flack   0.46(10)
_refine_ls_extinction_method     none
_refine_ls_goodness_of_fit_ref   1.056
_refine_ls_hydrogen_treatment    constr
_refine_ls_matrix_type           full
_refine_ls_number_parameters     76
_refine_ls_number_reflns         1215
_refine_ls_number_restraints     12
_refine_ls_restrained_S_all      1.051
_refine_ls_R_factor_all          0.0993
_refine_ls_R_factor_gt           0.0721
_refine_ls_shift/su_max          0.000
_refine_ls_shift/su_mean         0.000
_refine_ls_structure_factor_coef Fsqd
_refine_ls_weighting_details
'w=1/[\s^2^(Fo^2^)+(0.1167P)^2^] where P=(Fo^2^+2Fc^2^)/3'
_refine_ls_weighting_scheme      calc
_refine_ls_wR_factor_gt          0.1753
_refine_ls_wR_factor_ref         0.1951
_reflns_Friedel_coverage         0.642
_reflns_Friedel_fraction_full    1.000
_reflns_Friedel_fraction_max     0.996
_reflns_number_gt                912
_reflns_number_total             1215
_reflns_threshold_expression     'I > 2\s(I)'
_cod_data_source_file            c7fd00017k2.cif
_cod_data_source_block           1
_cod_original_cell_volume        1901(8)
_cod_database_code               1545269
_shelx_shelxl_version_number     2014/7
_shelx_space_group_comment
;
The symmetry employed for this shelxl refinement is uniquely defined
by the following loop, which should always be used as a source of
symmetry information in preference to the above space-group names.
They are only intended as comments.
;
_shelx_estimated_absorpt_t_min   0.729
_shelx_estimated_absorpt_t_max   0.807
_shelx_res_file
;

    1.res created by SHELXL-2014/7

TITL 1 in P1                     New: I4122
CELL  0.71073    9.2810    9.2810   22.0700    90.000    90.000    90.000
ZERR  4           0.0170    0.0170    0.0500     0.000     0.000     0.000
LATT -2
SYMM             - Y ,    0.50000 + X ,    0.25000 + Z
SYMM     0.50000 - X ,    0.50000 - Y ,    0.50000 + Z
SYMM     0.50000 + Y ,            - X ,    0.75000 + Z
SYMM               X ,    0.50000 - Y ,    0.25000 - Z
SYMM     0.50000 + Y ,    0.50000 + X ,    0.50000 - Z
SYMM     0.50000 - X ,              Y ,    0.75000 - Z
SYMM             - Y ,            - X ,            - Z
SFAC
SFAC C   2.3100 20.8439  1.0200 10.2075  1.5886  0.5687  0.8650 51.6512  =
        0.2156  0.0033  0.0016 11.5000 0.680 12.01000
SFAC
SFAC H   0.4930 10.5109  0.3229 26.1257  0.1402  3.1424  0.0408 57.7998  =
        0.0030  0.0000  0.0000  0.6240 0.350  1.00800
SFAC
SFAC Cu 13.3380  3.5828  7.1676  0.2470  5.6158 11.3966  1.6735 64.8127  =
        1.1910  0.3201  1.2651 5180.0000 1.520 63.55000
SFAC
SFAC N  12.2126  0.0057  3.1322  9.8933  2.0125 28.9975  1.1663  0.5826  =
       -11.5290  0.0061  0.0033 19.6000 0.680 14.01000
UNIT 48 20 8 36
OMIT 0 1 1
L.S. 50
ACTA
BOND $H
FMAP 2
PLAN 20
SIZE 0.15 0.1 0.1
ISOR 0.001 C5 N3
TWIN
CONF
WGHT    0.116700
BASF   0.46094
FVAR       0.07771
PART -1
C5    1    0.738934    0.767320    0.063841    10.25000    0.09647    0.09649 =
         0.09652    0.00002   -0.00003    0.00011
C4    1    0.682698    0.723885    0.109535    10.25000    0.05186    0.14950 =
         0.10250   -0.01471   -0.01132    0.02529
AFIX 137
H4A   2    0.728647    0.636176    0.122116    10.25000   -1.50000
H4B   2    0.582418    0.705911    0.102012    10.25000   -1.50000
H4C   2    0.692226    0.794964    0.140881    10.25000   -1.50000
AFIX   0
N3    4    0.780690    0.779905    0.018355    10.25000    0.07555    0.07551 =
         0.07578    0.00012   -0.00011    0.00048
PART 0
CU1   3    0.250000    0.789231    0.875000    10.50000    0.03818    0.03859 =
         0.02168    0.00000    0.00012    0.00000
N1    4    0.162347    0.676862    0.940898    11.00000    0.04600    0.04708 =
         0.02480    0.00410    0.00225   -0.00669
N2    4    0.080779    0.590723    1.091056    11.00000    0.04058    0.03884 =
         0.02161   -0.00053   -0.00063   -0.00733
C3    1    0.111757    0.625653    0.982668    11.00000    0.04660    0.04106 =
         0.02033   -0.00397   -0.00294   -0.00361
C2    1    0.050575    0.555524    1.032625    11.00000    0.03846    0.03009 =
         0.01932   -0.00102   -0.00115    0.00012
C1    1    0.000000    0.500000    1.122670    10.50000    0.04193    0.03457 =
         0.02189    0.00000    0.00000   -0.00678
AFIX  43
H1    2    0.000001    0.500000    1.164808    10.50000   -1.20000
AFIX   0
HKLF 4 1  1.0000  0.0000  0.0000  0.0000  1.0000  0.0000  1.0000  1.0000  2.0000

REM  1 in P1                     New: I4122
REM R1 =  0.0721 for     912 Fo > 4sig(Fo)  and  0.0993 for all    1215 data
REM     76 parameters refined using     12 restraints

END

WGHT      0.1130      0.0000

REM Highest difference peak  1.738,  deepest hole -1.168,  1-sigma level  0.177
Q1    1   0.2495  0.7884  0.8354  11.00000  0.05    1.74
Q2    1   0.1846  0.7472  0.8746  11.00000  0.05    0.94
Q3    1   0.7094  0.7058  0.0450  11.00000  0.05    0.77
Q4    1   0.5000  0.5000  0.0000  10.25000  0.05    0.76
Q5    1   0.2493  0.6491  0.8951  11.00000  0.05    0.72
Q6    1   0.7367  0.7500  0.1250  10.50000  0.05    0.63
Q7    1   0.8509  0.8509  0.0000  10.50000  0.05    0.59
Q8    1   0.7006  0.7006  0.0000  10.50000  0.05    0.59
Q9    1   0.5419  0.5421  0.0389  11.00000  0.05    0.59
Q10   1   0.6379  0.6292  0.0838  11.00000  0.05    0.46
Q11   1   0.0000  0.5000  1.0317  10.50000  0.05    0.46
Q12   1   0.7615  0.7934  0.0407  11.00000  0.05    0.45
Q13   1   0.0640  0.5619  1.0603  11.00000  0.05    0.45
Q14   1   0.1264  0.7789  0.9039  11.00000  0.05    0.45
Q15   1   0.0602  0.4595  1.2386  11.00000  0.05    0.44
Q16   1   0.2500  0.8591  0.8750  10.50000  0.05    0.43
Q17   1   0.1196  0.6205  1.0194  11.00000  0.05    0.40
Q18   1   0.1852  0.6764  0.9824  11.00000  0.05    0.38
Q19   1   0.7825  0.7932  0.0629  11.00000  0.05    0.38
Q20   1   0.2080  0.6246  1.0952  11.00000  0.05    0.38
;
_shelx_res_checksum              78015
_shelx_hkl_file
;
   1   0  -1   22.31    1.14
  -1   0   1   23.57    1.15
   2   0  -2    1.37    0.44
   3   0  -3    8.72    0.86
   4   0  -4  209.69   10.06
   5   0  -5   55.82    3.08
   6   0  -6   16.59    1.65
   7   0  -7   10.11    1.51
   8   0  -8   20.08    2.15
   9   0  -9    0.99    1.46
  10   0 -10    9.05    1.86
  11   0 -11   -1.00    1.75
  11  -1 -10    8.51    1.86
  10  -1  -9    3.44    1.49
   9  -1  -8    1.49    1.31
   8  -1  -7   18.39    1.86
   8  -1  -7   16.76    1.36
   7  -1  -6   16.73    1.75
   7  -1  -6   16.09    1.24
   6  -1  -5   17.18    1.18
   6  -1  -5   17.10    1.61
   5  -1  -4   86.74    3.75
   5  -1  -4   82.36    4.31
   4  -1  -3   17.04    1.24
   3  -1  -2    6.24    0.70
   2  -1  -1   38.64    1.96
  -1   1   0  467.22   22.57
   1  -1   0  496.01   22.57
   0   1  -1   16.12    0.76
   0  -1   1   15.60    0.75
   1   1  -2  130.37    5.88
   1   1  -2  117.00    5.33
   2   1  -3   56.73    2.54
   2   1  -3   55.54    2.83
   3   1  -4  233.97   11.15
   4   1  -5   93.91    4.52
  -4  -1   5   83.39    3.90
   5   1  -6   10.61    1.31
   6   1  -7   13.95    1.57
   7   1  -8   29.64    2.51
   8   1  -9    3.02    1.43
   9   1 -10   11.79    2.01
  10   1 -11    1.58    1.75
  11   1 -12    0.24    1.89
  11  -2  -9    2.80    1.51
  10  -2  -8    0.00    0.88
  10  -2  -8    0.61    1.25
   9  -2  -7    0.44    1.07
   9  -2  -7    0.93    0.83
   8  -2  -6   12.41    1.22
   8  -2  -6   11.73    1.46
   7  -2  -5   22.02    1.51
   7  -2  -5   22.93    1.88
   6  -2  -4   25.36    1.80
   6  -2  -4   24.05    1.49
   5  -2  -3   60.83    3.19
   4  -2  -2    6.28    0.73
   3  -2  -1   37.59    1.97
   2  -2   0 1000.00   46.72
   0   2  -2    1.00    0.37
   1   2  -3   45.97    2.20
   1   2  -3   39.72    2.06
   2   2  -4  187.35    8.01
   2   2  -4  183.13    8.84
   3   2  -5   51.68    2.43
   3   2  -5   49.67    2.71
   4   2  -6    5.94    0.96
  -4  -2   6    6.01    0.65
   5   2  -7   25.20    2.02
  -5  -2   7   27.07    1.48
   6   2  -8   32.98    2.60
  -6  -2   8   35.58    1.88
   7   2  -9    9.93    1.70
   8   2 -10   14.32    2.09
   9   2 -11    0.14    1.70
  10   2 -12    0.57    1.88
  11  -3  -8    1.14    1.26
  11  -3  -8   -0.90    0.95
  10  -3  -7    4.06    1.07
  10  -3  -7    4.10    1.23
   9  -3  -6    5.94    1.30
   9  -3  -6    6.47    1.09
   8  -3  -5    5.66    1.04
   8  -3  -5    4.97    1.13
   7  -3  -4    2.03    0.76
   7  -3  -4    2.37    0.98
   6  -3  -3   37.97    2.30
   5  -3  -2    3.48    0.70
   4  -3  -1   67.79    3.43
   3  -3   0  231.95   11.00
   2  -3   1   28.82    1.55
   0   3  -3    7.92    0.74
   1   3  -4  184.76    8.04
   2   3  -5   40.96    2.08
   2   3  -5   40.40    2.22
   3   3  -6    1.82    0.74
   3   3  -6    0.72    0.53
   4   3  -7   14.59    1.52
   5   3  -8   24.72    2.30
  -5  -3   8   31.28    1.65
   6   3  -9    4.14    1.56
  -6  -3   9    6.79    0.91
   7   3 -10    7.78    1.79
  -7  -3  10    6.22    0.93
   8   3 -11    6.69    1.99
  -8  -3  11    5.21    1.02
   9   3 -12    1.69    2.05
  -9  -3  12   -0.20    0.86
  10   3 -13    0.99    2.30
  11  -4  -7    1.80    1.10
  11  -4  -7    1.92    1.23
  10  -4  -6    3.71    1.12
  10  -4  -6    2.09    1.20
   9  -4  -5    5.34    1.06
   9  -4  -5    5.44    1.24
   8  -4  -4    3.57    1.09
   8  -4  -4    3.40    0.92
   7  -4  -3   14.79    1.53
   5  -4  -1   36.50    2.15
   4  -4   0  122.70    6.01
   3  -4   1   59.36    3.04
   2  -4   2    5.61    0.71
   0   4  -4  158.55    6.99
   1   4  -5   68.77    3.30
   2   4  -6    3.95    0.78
   3   4  -7   12.87    1.13
   3   4  -7   11.62    1.27
   4   4  -8   31.66    2.27
   5   4  -9    5.57    1.46
  -5  -4   9    6.72    0.91
   6   4 -10    1.32    1.38
  -6  -4  10    2.42    0.77
   7   4 -11    8.11    1.96
  -7  -4  11    9.47    1.16
   8   4 -12    0.37    1.77
  -8  -4  12    0.77    0.87
   9   4 -13    1.92    2.07
  -9  -4  13   -0.40    0.97
  10   4 -14    1.22    2.43
  11  -5  -6    0.52    0.99
  11  -5  -6    2.28    1.26
  10  -5  -5    3.41    1.24
  10  -5  -5    4.05    1.12
   9  -5  -4    2.46    1.07
   9  -5  -4    1.11    0.83
   8  -5  -3   14.82    1.36
   8  -5  -3   15.36    1.66
   7  -5  -2    1.60    0.87
   6  -5  -1   18.99    1.63
   5  -5   0   19.13    1.49
   3  -5   2    3.51    0.66
  -1   5  -4   64.89    3.16
   0   5  -5   37.98    2.12
   1   5  -6    7.97    1.04
   2   5  -7   18.84    1.44
   4   5  -9    7.91    1.35
  -4  -5   9    7.05    0.89
   5   5 -10    1.39    1.19
  -5  -5  10    1.21    0.69
   6   5 -11    6.68    1.72
  -6  -5  11    8.24    1.12
   7   5 -12   -0.49    1.61
  -7  -5  12   -0.11    0.80
   8   5 -13    2.44    1.97
  -8  -5  13    2.22    0.97
   9   5 -14   -0.59    2.21
  -9  -5  14    1.88    1.14
  10  -6  -4    1.90    1.20
  10  -6  -4    2.50    0.98
   9  -6  -3    3.22    1.17
   9  -6  -3    2.39    0.94
   8  -6  -2    1.87    0.79
   8  -6  -2    1.43    1.01
   5  -6   1   26.90    1.93
   3  -6   3   33.79    2.08
  -1   6  -5   14.96    1.33
   0   6  -6   12.50    1.28
   1   6  -7   10.78    1.25
   2   6  -8   23.29    1.76
  -4  -6  10    1.82    0.72
   5   6 -11    7.71    1.57
  -5  -6  11    6.24    1.02
   6   6 -12   -0.11    1.42
  -6  -6  12    0.09    0.79
   7   6 -13    0.89    1.84
  -7  -6  13    2.19    0.96
   8   6 -14   -0.26    2.00
  -8  -6  14   -0.65    0.97
  10  -7  -3    0.26    0.83
   9  -7  -2   -0.91    1.10
   9  -7  -2    1.06    0.84
   7  -7   0   -1.04    0.96
   4  -7   3   17.68    1.58
   3  -7   4    1.67    0.85
  -1   7  -6   11.19    1.29
   0   7  -7    8.21    1.23
  -3  -7  10    3.99    0.89
  -4  -7  11    5.29    0.97
  -5  -7  12    0.05    0.79
  -6  -7  13    1.27    0.95
  -7  -7  14    0.59    0.97
   9  -8  -1    2.01    0.92
   4  -8   4    5.60    1.23
   3  -8   5    5.80    1.17
  -2  -8  10    9.04    1.16
  -3  -8  11    2.84    0.91
  -4  -8  12   -1.22    0.78
  -5  -8  13    1.89    0.98
  -6  -8  14    0.06    0.94
   8  -9   1    3.01    0.96
   4  -9   5    5.86    1.39
   3  -9   6    5.93    1.34
   1  -9   8    1.06    0.75
   0  -9   9    0.12    0.71
  -1  -9  10    6.62    1.08
  -2  -9  11    1.29    0.85
  -3  -9  12    0.21    0.84
  -4  -9  13    0.63    0.96
  -5  -9  14    0.40    1.00
   4 -10   6    0.83    1.33
   3 -10   7    5.12    1.52
   1 -10   9    1.57    0.85
   0 -10  10    4.10    1.06
  -1 -10  11    0.64    0.92
  -2 -10  12   -0.27    0.90
  -3 -10  13    0.70    0.99
  -4 -10  14   -0.15    1.06
   1 -11  10    4.10    1.15
   0 -11  11    0.45    1.00
  -1 -11  12    0.02    1.05
  -2 -11  12    1.39    1.07
  -1 -11  11    3.26    1.08
   0 -11  10   -0.59    0.87
   1 -11   9    1.21    0.88
  -4 -10  13    1.49    1.05
  -3 -10  12    1.69    1.03
  -2 -10  11    4.74    1.07
   6 -10   3    1.53    0.98
   7 -10   2    0.97    0.92
  -6  -9  14    1.00    1.13
  -5  -9  13   -0.33    0.92
  -4  -9  12    4.42    1.08
  -3  -9  11    5.09    1.07
   1   9  -9   -0.10    1.13
   0   9  -8    9.04    1.51
  -1   9  -7   11.46    1.52
   7  -9   1    0.87    0.85
   8  -9   0    1.75    0.88
  -7  -8  14    0.37    1.04
  -6  -8  13    1.38    0.92
  -5  -8  12    5.63    1.09
   2   8  -9    0.42    1.01
   1   8  -8   14.38    1.64
   0   8  -7   19.83    1.84
  -1   8  -6    7.75    1.23
   7  -8   0    5.21    0.98
   8  -8  -1    0.77    0.81
   9  -8  -2    1.00    0.83
  -8  -7  14    1.84    1.17
   8   7 -14    2.59    2.22
  -7  -7  13    0.07    0.93
   7   7 -13    0.51    1.85
  -6  -7  12    6.31    1.15
   6   7 -12    6.93    1.89
  -5  -7  11    0.06    0.70
   3   7  -9    0.54    0.91
   2   7  -8   16.52    1.65
   1   7  -7   13.25    1.47
   0   7  -6    1.32    0.96
  -1   7  -5   10.05    1.31
   7  -7  -1   -0.23    0.67
   8  -7  -2    3.30    0.90
   9  -7  -3    2.46    0.91
  10  -7  -4    1.32    1.01
  -9  -6  14    0.81    1.10
   9   6 -14    2.08    2.30
  -8  -6  13    0.62    0.98
   8   6 -13    1.20    1.99
  -7  -6  12    8.12    1.23
   7   6 -12    7.86    1.99
  -6  -6  11    0.46    0.71
   6   6 -11    0.69    1.39
   5   6 -10   13.33    1.81
   4   6  -9   -0.31    0.78
   4   6  -9   -2.13    1.01
   3   6  -8   26.59    1.89
   2   6  -7   10.47    1.21
   1   6  -6   16.98    1.53
   0   6  -5   19.36    1.51
  -1   6  -4   32.00    1.94
   7  -6  -2   15.22    1.37
   8  -6  -3    1.92    0.85
   9  -6  -4    3.15    0.96
  10  -6  -5    1.07    0.92
  -9  -5  13   -0.15    0.99
   9   5 -13   -0.87    2.09
  -8  -5  12    9.93    1.34
   8   5 -12    7.92    2.24
  -7  -5  11    0.85    0.79
   7   5 -11    0.15    1.62
  -6  -5  10   14.03    1.26
   6   5 -10   15.16    2.00
   5   5  -9    1.38    1.23
   4   5  -8   28.71    1.81
   4   5  -8   24.49    2.09
   3   5  -7    6.03    0.96
   3   5  -7    7.42    1.09
   2   5  -6   14.79    1.33
   1   5  -5   56.21    2.83
   0   5  -4    5.39    0.85
  -1   5  -3   11.59    1.11
   6  -5  -2   15.42    1.30
   7  -5  -3    3.32    0.96
   8  -5  -4    7.29    1.26
   8  -5  -4    9.08    1.22
   9  -5  -5    3.36    1.01
  10  -5  -6    2.42    0.98
  10  -5  -6    3.11    1.25
  10   4 -13    1.11    2.26
  -9  -4  12    5.53    1.17
   9   4 -12    6.80    2.33
  -8  -4  11    4.42    1.00
   8   4 -11    5.46    2.07
  -7  -4  10   15.65    1.33
   7   4 -10   15.11    2.16
  -6  -4   9    0.17    0.61
   6   4  -9   -1.73    1.31
   5   4  -8   32.10    1.91
   5   4  -8   31.61    2.52
   4   4  -7    4.15    0.80
   4   4  -7    4.58    1.06
   3   4  -6    9.20    1.02
   3   4  -6    7.70    1.01
   2   4  -5   42.58    2.47
   2   4  -5   48.51    2.33
   1   4  -4   14.33    1.19
   0   4  -3    3.48    0.69
   6  -4  -3   -0.30    0.64
   6  -4  -3    0.88    0.75
   7  -4  -4    9.20    1.18
   8  -4  -5    5.71    1.22
   8  -4  -5    8.13    1.16
   9  -4  -6    7.07    1.32
   9  -4  -6    6.35    1.12
  10  -4  -7    1.68    1.18
  10  -4  -7    0.64    1.02
  11  -4  -8    2.39    1.34
  11  -4  -8   -0.51    1.05
  10   3 -12    4.68    2.12
   9   3 -11    8.73    2.11
  -8  -3  10   13.46    1.28
   8   3 -10   13.81    2.14
  -7  -3   9    1.07    0.69
   7   3  -9    0.61    1.41
  -6  -3   8   33.67    1.84
   6   3  -8   33.61    2.66
   5   3  -7    7.96    0.90
   5   3  -7    8.77    1.33
   4   3  -6    9.77    0.96
   4   3  -6   10.80    1.21
   3   3  -5   67.34    3.47
   3   3  -5   65.46    3.14
   2   3  -4    9.34    0.88
   2   3  -4    9.96    0.89
   1   3  -3    4.70    0.62
   1   3  -3    4.34    0.54
   0   3  -2    0.61    0.38
   5  -3  -3   20.73    1.34
   6  -3  -4   27.81    1.74
   6  -3  -4   31.16    2.01
   7  -3  -5    7.18    1.22
   7  -3  -5    8.25    1.09
   8  -3  -6    2.64    1.06
   8  -3  -6    3.28    0.89
   9  -3  -7    2.33    1.11
   9  -3  -7    0.00    0.85
  10  -3  -8    2.83    1.09
  10  -3  -8    4.20    1.41
  11  -3  -9    1.10    1.20
  11  -3  -9    3.44    1.54
  11   2 -12    2.01    2.09
  10   2 -11    8.50    2.03
   9   2 -10    9.52    1.97
   8   2  -9    0.88    1.38
   7   2  -8   27.80    2.48
   6   2  -7   17.41    1.75
   5   2  -6   19.33    1.66
   4   2  -5   67.88    3.58
   3   2  -4   11.41    1.01
   3   2  -4   11.73    0.85
   2   2  -3  243.74   10.97
   2   2  -3  219.47    9.93
   1   2  -2   32.66    1.69
   0   2  -1  146.49    6.28
   3  -2  -2   11.15    0.81
   4  -2  -3   60.23    3.06
   4  -2  -3   57.78    2.72
   5  -2  -4   16.37    1.29
   5  -2  -4   12.61    1.05
   6  -2  -5   14.10    1.51
   6  -2  -5   13.02    1.14
   7  -2  -6   26.92    1.73
   7  -2  -6   28.78    2.16
   8  -2  -7    1.04    1.04
   8  -2  -7    0.76    0.82
   9  -2  -8    9.72    1.62
   9  -2  -8    8.53    1.23
  10  -2  -9    6.82    1.68
  10  -2  -9    5.35    1.26
  11  -2 -10    2.12    1.59
  11   1 -11    9.17    2.13
  10   1 -10    3.51    1.67
   9   1  -9    1.68    1.34
   8   1  -8   17.96    2.00
   7   1  -7   19.67    1.99
   6   1  -6   18.86    1.78
   5   1  -5   88.74    4.56
   4   1  -4   14.90    1.22
   3   1  -3    7.89    0.79
   2   1  -2   34.70    1.84
   2   1  -2   35.06    1.62
  -1  -1   1  362.04   17.47
   1   1  -1  376.99   15.79
   1   1  -1  377.44   17.47
   0  -1   0   13.58    0.60
   0  -1   0   12.75    0.63
   0   1   0   12.61    0.63
   0   1   0   13.64    0.60
   1  -1  -1  112.47    4.70
   2  -1  -2   41.47    1.85
   2  -1  -2   40.21    2.09
   3  -1  -3  214.05    9.79
   3  -1  -3  197.06    8.57
   4  -1  -4   93.89    4.69
   4  -1  -4   93.29    4.08
   5  -1  -5   13.03    1.26
   5  -1  -5   10.40    0.91
   6  -1  -6   13.92    1.11
   6  -1  -6   12.30    1.42
   7  -1  -7   30.75    1.84
   7  -1  -7   29.60    2.38
   8  -1  -8    2.53    1.26
   9  -1  -9    9.41    1.75
  10  -1 -10    1.40    1.56
  11  -1 -11    2.46    1.77
  11   0 -10    0.41    1.48
  10   0  -9    0.51    1.43
   9   0  -8   15.09    1.91
   8   0  -7   22.32    2.06
   7   0  -6    1.41    1.06
   6   0  -5   28.79    2.04
   5   0  -4   10.20    1.14
   4   0  -3    7.79    0.90
   3   0  -2    0.60    0.45
   2   0  -1  239.96   11.31
  -1   0   0   17.98    0.96
   1   0   0   19.43    0.95
   0   0  -1   -0.35    0.07
   0   0   1   -0.34    0.07
   0   0   1    0.46    0.11
   1   0  -2   47.22    2.21
   1   0  -2   56.26    2.55
  -1   0   2   54.49    2.29
   2   0  -3  249.71   11.84
   2   0  -3  248.71   10.33
  -2   0   3  253.72   10.66
   3   0  -4   80.47    4.01
   3   0  -4   80.31    3.45
   4   0  -5   13.82    1.27
   5   0  -6   17.14    1.57
   6   0  -7   35.85    2.55
   7   0  -8   16.10    1.85
   8   0  -9    9.91    1.68
   9   0 -10   -0.99    1.51
  10   0 -11    1.66    1.72
  11   0 -12    0.80    1.84
  11  -1  -9    2.55    1.54
  10  -1  -8    1.00    1.27
   9  -1  -7   14.17    1.66
   8  -1  -6   10.82    1.13
   8  -1  -6    9.58    1.44
   7  -1  -5   11.80    1.12
   7  -1  -5   11.89    1.43
   6  -1  -4   50.51    2.87
   5  -1  -3   16.79    1.32
   4  -1  -2   15.43    1.11
   3  -1  -1    8.77    0.75
   2  -1   0   34.63    1.78
   1  -1   1  132.98    6.30
   0  -1   2   45.30    2.01
   1   1  -3  239.72   10.54
  -1  -1   3  206.80    9.53
   2   1  -4   78.94    3.87
  -2  -1   4   78.00    3.49
   3   1  -5    5.06    0.77
  -3  -1   5    6.33    0.60
   4   1  -6   33.55    2.12
  -4  -1   6   33.74    1.71
   5   1  -7   73.64    3.95
  -5  -1   7   69.34    3.29
   6   1  -8   35.51    2.68
   7   1  -9   11.90    1.81
   8   1 -10    1.69    1.55
   9   1 -11    3.77    1.84
  10   1 -12    5.46    2.08
  11  -2  -8    1.52    1.28
  11  -2  -8    1.22    1.05
  10  -2  -7   13.40    1.43
  10  -2  -7   10.78    1.61
   9  -2  -6    1.47    1.10
   9  -2  -6    1.24    0.81
   8  -2  -5   -0.01    0.68
   8  -2  -5    1.10    1.01
   7  -2  -4   20.21    1.75
   6  -2  -3   13.57    1.33
   5  -2  -2   28.99    1.76
   4  -2  -1   65.62    3.33
   3  -2   0   28.87    1.59
   2  -2   1  182.46    8.66
   0  -2   3  175.46    7.53
  -1  -2   4   59.25    2.68
   2   2  -5    6.87    0.76
  -2  -2   5    8.00    0.71
   3   2  -6   14.63    1.31
  -3  -2   6   16.19    1.03
   4   2  -7   42.80    2.72
  -4  -2   7   48.35    2.28
   5   2  -8   16.23    1.71
  -5  -2   8   16.40    1.17
   6   2  -9    9.52    1.69
  -6  -2   9   10.84    1.08
   7   2 -10    6.24    1.68
  -7  -2  10    6.73    0.97
   8   2 -11    1.32    1.75
   9   2 -12    3.96    2.13
  10   2 -13    4.32    2.34
  11  -3  -7    3.96    1.29
  11  -3  -7    3.92    1.18
  10  -3  -6    3.71    1.24
  10  -3  -6    2.23    0.97
   9  -3  -5    1.40    1.04
   9  -3  -5    3.37    0.91
   8  -3  -4    8.04    1.28
   7  -3  -3    7.04    1.12
   6  -3  -2   18.54    1.50
   5  -3  -1    4.29    0.72
   4  -3   0   54.19    2.85
   3  -3   1   10.67    0.82
   2  -3   2    9.21    0.78
  -1  -3   5    5.03    0.56
   2   3  -6   12.53    1.11
  -2  -3   6   13.46    0.92
   3   3  -7   59.19    3.27
  -3  -3   7   62.19    2.89
   4   3  -8   14.26    1.57
  -4  -3   8   13.30    1.08
   5   3  -9    3.45    1.32
  -5  -3   9    3.67    0.79
   6   3 -10    5.18    1.61
  -6  -3  10    4.68    0.83
   7   3 -11    6.59    1.86
  -7  -3  11   10.17    1.16
   8   3 -12    9.12    2.13
  -8  -3  12    9.12    1.22
   9   3 -13    5.97    2.20
  -9  -3  13    2.57    1.00
  10   3 -14   -0.01    2.21
  11  -4  -6    3.04    1.27
  11  -4  -6    2.64    1.08
  10  -4  -5    1.79    0.94
  10  -4  -5    1.05    1.09
   9  -4  -4    8.30    1.38
   9  -4  -4    9.01    1.21
   8  -4  -3    2.72    0.98
   7  -4  -2    8.92    1.25
   6  -4  -1    1.45    0.71
   5  -4   0   35.97    2.15
   4  -4   1   29.63    1.77
   3  -4   2   54.03    2.84
  -2  -4   7   39.09    2.00
   3   4  -8   15.10    1.45
  -3  -4   8   13.27    1.09
   4   4  -9    1.57    1.03
  -4  -4   9    1.47    0.66
   5   4 -10    6.54    1.47
  -5  -4  10    6.13    0.94
   6   4 -11    2.53    1.52
  -6  -4  11    3.13    0.84
   7   4 -12   11.36    2.13
  -7  -4  12   13.19    1.37
   8   4 -13    4.36    2.09
  -8  -4  13    2.34    1.01
   9   4 -14    0.63    2.25
  -9  -4  14    0.75    0.98
  11  -5  -5    1.85    1.25
  11  -5  -5    1.51    1.05
  10  -5  -4    1.53    0.95
  10  -5  -4    2.97    1.18
   9  -5  -3    2.11    0.86
   9  -5  -3    3.61    1.12
   8  -5  -2    6.41    1.23
   7  -5  -1   -0.49    0.74
   6  -5   0   21.33    1.75
   5  -5   1    2.09    0.75
   4  -5   2   25.14    1.66
   3  -5   3   18.23    1.36
  -1  -5   7   47.82    2.38
  -2  -5   8   11.15    1.02
  -3  -5   9    3.41    0.78
   4   5 -10    6.31    1.30
  -4  -5  10    5.67    0.93
   5   5 -11    6.52    1.48
  -5  -5  11    6.30    1.02
   6   5 -12   11.33    1.95
  -6  -5  12   11.96    1.28
   7   5 -13    0.17    1.71
  -7  -5  13    0.26    0.86
   8   5 -14    2.05    2.09
  -8  -5  14    2.89    1.11
   9   5 -15    0.33    2.33
  10  -6  -3   -0.24    1.12
  10  -6  -3    1.64    0.93
   9  -6  -2    3.27    1.22
   8  -6  -1    0.85    1.02
   7  -6   0   17.21    1.80
   6  -6   1    5.64    1.13
   5  -6   2   15.36    1.50
   4  -6   3    0.23    0.66
   3  -6   4   30.82    2.04
   0  -6   7   22.76    1.43
  -1  -6   8   21.52    1.43
  -2  -6   9    7.69    0.99
  -3  -6  10    4.10    0.83
  -4  -6  11    2.76    0.86
  -5  -6  12   11.01    1.27
  -6  -6  13   -0.02    0.80
   7   6 -14    3.67    1.93
  -7  -6  14    1.43    0.98
   8   6 -15    1.93    2.27
  -8  -6  15    0.55    1.04
  10  -7  -2    1.84    0.94
  10  -7  -2   -0.86    1.19
   9  -7  -1    2.21    1.30
   8  -7   0    4.30    1.29
   7  -7   1   -0.76    0.99
   6  -7   2   13.16    1.64
   5  -7   3    3.21    0.97
   4  -7   4    9.02    1.33
   3  -7   5    5.87    1.13
   1  -7   7   20.23    1.39
   0  -7   8   11.40    1.15
  -1  -7   9    7.40    1.02
  -2  -7  10    4.88    0.93
  -3  -7  11    5.10    1.01
  -4  -7  12    9.30    1.23
  -5  -7  13   -0.50    0.74
  -6  -7  14    2.17    0.97
  -7  -7  15    0.85    1.03
   9  -8   0    0.29    1.34
   8  -8   1   -1.94    1.18
   7  -8   2    2.81    1.34
   5  -8   4    9.42    1.50
   4  -8   5    7.45    1.46
   3  -8   6    2.88    1.06
   1  -8   8    2.39    0.77
   0  -8   9    6.20    1.00
  -1  -8  10    0.83    0.78
  -2  -8  11    0.79    0.84
  -3  -8  12    5.49    1.12
  -4  -8  13    1.59    0.91
  -5  -8  14    1.61    0.98
  -6  -8  15    0.64    0.94
   8  -9   2   -0.63    1.41
   5  -9   5    0.90    1.24
   4  -9   6    7.32    1.53
   3  -9   7   -0.27    1.03
   1  -9   9    7.10    1.09
   0  -9  10   -0.44    0.77
  -1  -9  11    1.65    0.91
  -2  -9  12    2.22    0.99
  -3  -9  13    2.02    1.01
  -4  -9  14   -0.08    0.91
   6 -10   5    0.55    1.48
   5 -10   6    1.95    1.48
   4 -10   7    1.19    1.29
   3 -10   8    4.63    1.48
   1 -10  10    0.12    0.82
   0 -10  11    1.79    0.98
  -1 -10  12    1.31    1.01
  -2 -10  13    3.69    1.24
  -3 -10  14    1.23    1.00
   4 -11   8    0.69    1.49
   3 -11   9    3.90    1.59
   1 -11  11   -0.11    0.91
   0 -11  12    0.15    0.96
  -3 -11  12    2.55    1.09
   1 -11   8   10.06    1.81
   2 -11   7   -0.40    1.37
   3 -11   6    1.53    1.39
   4 -11   5    0.36    1.24
   5 -11   4    0.90    1.20
  -5 -10  13    0.21    1.00
  -4 -10  12    2.83    1.06
   2  10 -10   -0.42    1.30
   1  10  -9    1.74    1.31
   0  10  -8   10.80    1.69
  -1  10  -7    1.86    1.13
   4 -10   4    3.55    1.20
   5 -10   3    1.24    1.04
   6 -10   2    0.67    0.94
   7 -10   1    1.29    0.94
  -6  -9  13    1.33    1.02
  -5  -9  12    1.71    0.93
   3   9 -10    0.38    1.17
   2   9  -9    1.89    1.19
   1   9  -8   12.00    1.65
   0   9  -7    4.13    1.29
  -1   9  -6    0.79    1.04
   5  -9   2    0.91    0.90
   6  -9   1    3.29    0.97
   7  -9   0    0.91    0.85
   8  -9  -1   -0.24    0.76
   8   8 -14    2.09    2.21
  -7  -8  13    1.83    1.02
  -6  -8  12    0.24    0.83
   4   8 -10    0.12    1.02
   3   8  -9    2.00    1.09
   2   8  -8    9.17    1.39
   1   8  -7    8.09    1.38
   0   8  -6    5.23    1.19
  -1   8  -5   15.29    1.57
   5  -8   1    9.01    1.24
   6  -8   0    0.59    0.77
   7  -8  -1    2.52    0.87
   8  -8  -2    1.85    0.86
   9  -8  -3    2.47    1.00
  -8  -7  13    4.11    1.22
   8   7 -13    4.33    2.19
  -7  -7  12    0.82    0.89
   7   7 -12    0.06    1.77
   6   7 -11    5.24    1.68
   5   7 -10    0.19    0.94
   5   7 -10    0.23    1.28
   4   7  -9    3.92    1.05
   3   7  -8    5.57    1.08
   2   7  -7   21.21    1.81
   1   7  -6    8.72    1.26
   0   7  -5   24.88    1.85
  -1   7  -4   19.53    1.67
   5  -7   0    1.01    0.74
   6  -7  -1   18.80    1.56
   7  -7  -2    3.04    0.89
   8  -7  -3    5.69    1.08
   9  -7  -4    1.25    0.83
  -9  -6  13    2.56    1.23
   9   6 -13    6.21    2.32
  -8  -6  12    0.53    0.91
   8   6 -12    0.39    1.86
  -7  -6  11    5.87    1.07
   7   6 -11    4.16    1.85
   6   6 -10    0.35    0.87
   6   6 -10    2.25    1.44
   5   6  -9    3.46    0.96
   5   6  -9    2.74    1.27
   4   6  -8    2.62    0.89
   4   6  -8    2.33    1.12
   3   6  -7   26.60    1.87
   2   6  -6   20.14    1.59
   1   6  -5   32.66    2.07
   0   6  -4   18.58    1.54
  -1   6  -3   26.39    1.69
   5  -6  -1   18.93    1.47
   6  -6  -2    2.32    0.83
   7  -6  -3   11.96    1.35
   8  -6  -4    1.48    0.84
   9  -6  -5    4.19    0.99
  10  -6  -6   -0.89    0.85
 -10  -5  13    1.79    1.19
  10   5 -13    3.07    2.26
  -9  -5  12    2.06    1.10
   9   5 -12    2.55    2.03
  -8  -5  11    6.14    1.09
   8   5 -11    6.10    2.00
   7   5 -10   -0.42    1.49
   6   5  -9    4.13    0.92
   6   5  -9    4.50    1.50
   5   5  -8    0.35    1.18
   5   5  -8    0.43    0.72
   4   5  -7   25.94    1.73
   4   5  -7   22.97    1.99
   3   5  -6   14.43    1.39
   3   5  -6   15.66    1.30
   2   5  -5   40.81    2.32
   1   5  -4   14.52    1.30
   0   5  -3   11.33    1.07
  -1   5  -2   17.02    1.20
   4  -5  -1   29.63    1.78
   5  -5  -2    0.71    0.67
   6  -5  -3    9.81    1.21
   7  -5  -4    4.80    0.99
   8  -5  -5    7.77    1.13
   9  -5  -6    1.18    0.88
  10  -5  -7    1.00    1.00
  10   4 -12    7.50    2.43
  -9  -4  11    4.84    1.10
   9   4 -11    4.39    1.92
  -8  -4  10    0.78    0.80
   8   4 -10   -0.11    1.55
   7   4  -9    3.96    1.57
   6   4  -8    2.21    1.33
   6   4  -8    3.02    0.83
   5   4  -7   26.95    2.18
   4   4  -6   13.37    1.18
   4   4  -6   15.42    1.50
   3   4  -5   47.54    2.65
   3   4  -5   57.18    2.90
   2   4  -4    2.81    0.75
   2   4  -4    4.50    0.69
   1   4  -3   12.39    1.04
   0   4  -2   34.25    1.77
  -1   4  -1    8.05    0.74
   3  -4  -1   63.90    3.00
   4  -4  -2   17.90    1.26
   5  -4  -3   27.14    1.68
   6  -4  -4    4.34    0.88
   7  -4  -5    5.77    0.97
   8  -4  -6    0.17    0.73
   9  -4  -7    3.80    1.06
  10  -4  -8    2.65    1.16
  11   3 -12    2.74    2.17
  10   3 -11    3.75    1.93
   9   3 -10    1.29    1.60
   8   3  -9    4.84    1.57
   7   3  -8    9.03    1.67
   6   3  -7   34.76    1.93
   6   3  -7   34.80    2.55
   5   3  -6   25.25    1.94
   4   3  -5   69.43    3.26
   4   3  -5   67.61    3.66
   3   3  -4   20.73    1.28
   3   3  -4   13.44    1.14
   2   3  -3   21.83    1.40
   2   3  -3   29.03    1.49
   1   3  -2    6.97    0.66
   0  -3   1    0.26    0.28
   0   3  -1    0.03    0.31
   1  -3   0    5.67    0.60
   2  -3  -1   11.24    0.81
   3  -3  -2   76.28    3.44
   4  -3  -3   12.79    1.16
   5  -3  -4   12.74    1.24
   6  -3  -5   30.09    1.79
   7  -3  -6    1.68    0.75
   8  -3  -7   14.54    1.47
   8  -3  -7   11.70    1.55
   9  -3  -8    9.34    1.58
   9  -3  -8    7.35    1.30
  10  -3  -9    2.44    1.44
  10  -3  -9    1.00    1.10
  11   2 -11   -0.03    1.81
  10   2 -10    0.74    1.57
   9   2  -9    3.63    1.45
   8   2  -8   15.97    2.01
   7   2  -7   23.42    2.20
   6   2  -6   28.79    2.21
   5   2  -5   67.19    3.63
   4   2  -4    7.89    0.76
   4   2  -4    8.05    0.94
   3   2  -3   35.07    1.94
   3   2  -3   35.47    1.74
   2   2  -2  895.95   42.43
   2   2  -2  919.14   38.34
   1   2  -1   18.72    1.00
   0  -2   0    0.95    0.24
   0   2   0    0.96    0.31
   1  -2  -1   35.61    1.64
   2  -2  -2  182.91    7.67
   3  -2  -3   47.40    2.22
   4  -2  -4    5.84    0.72
   5  -2  -5   22.66    1.47
   5  -2  -5   28.11    1.79
   6  -2  -6   34.81    2.34
   6  -2  -6   33.16    1.93
   7  -2  -7   10.77    1.29
   7  -2  -7   11.96    1.53
   8  -2  -8   15.42    1.87
   8  -2  -8   16.55    1.54
   9  -2  -9    5.26    1.46
   9  -2  -9    1.01    1.08
  10  -2 -10    0.06    1.23
  10  -2 -10    2.88    1.64
  11   1 -10    0.67    1.57
  10   1  -9    1.53    1.60
   9   1  -8   18.17    2.07
   8   1  -7   11.35    1.63
   7   1  -6   12.36    1.55
   6   1  -5   49.97    2.93
   4   1  -3   14.23    1.16
   3   1  -2    8.98    0.85
   2   1  -1   32.33    1.41
   2   1  -1   27.46    1.62
   1   1   0   84.73    3.67
   0  -1  -1   37.54    1.66
   0   1   1   39.79    1.74
   1  -1  -2  191.01    8.08
  -1   1   2  199.54    8.34
   2  -1  -3   68.96    3.00
   3  -1  -4    4.68    0.57
   4  -1  -5   31.04    1.92
   4  -1  -5   31.26    1.63
   5  -1  -6   75.64    4.08
   5  -1  -6   77.63    3.51
   6  -1  -7   34.16    2.46
   6  -1  -7   33.59    1.96
   7  -1  -8   14.68    1.42
   7  -1  -8    9.88    1.63
   8  -1  -9    1.06    1.36
   8  -1  -9    2.41    1.06
   9  -1 -10    2.82    1.67
  10  -1 -11    2.37    1.70
  11   0  -9    2.17    1.50
  10   0  -8   14.59    1.91
   9   0  -7    6.01    1.36
   8   0  -6    6.40    1.39
   7   0  -5   31.83    2.27
   6   0  -4   23.48    1.76
   5   0  -3   19.60    1.45
   4   0  -2   51.71    2.71
   2   0   0    1.33    0.34
  -1   0  -1   42.34    1.92
   1   0   1   45.60    2.11
   1   0   1   41.85    1.91
   0   0   2  189.63    8.08
   1   0  -3    4.93    0.55
   1   0  -3    5.33    0.46
  -1   0   3    5.31    0.48
   2   0  -4    2.34    0.51
   2   0  -4    2.40    0.40
  -2   0   4    3.00    0.42
   3   0  -5   78.55    3.90
   3   0  -5   77.06    3.36
  -3   0   5   75.58    3.44
   4   0  -6  123.65    5.04
   4   0  -6  110.38    5.84
  -4   0   6  115.60    5.13
   5   0  -7   67.14    3.79
   6   0  -8   18.18    1.97
   7   0  -9    7.31    1.64
   8   0 -10    0.24    1.45
   9   0 -11   10.31    2.12
  10   0 -12    9.00    2.23
  12  -1  -9    2.98    1.69
  11  -1  -8    7.66    1.50
  10  -1  -7    0.57    1.15
   9  -1  -6   -0.15    1.05
   8  -1  -5   14.94    1.21
   8  -1  -5   15.41    1.71
   7  -1  -4   19.10    1.70
   6  -1  -3   25.46    1.75
   5  -1  -2   23.31    1.54
   4  -1  -1   11.23    0.93
   3  -1   0    4.85    0.57
   2  -1   1   34.57    1.78
   1  -1   2  177.98    7.59
   0  -1   3    4.34    0.43
   1   1  -4    2.82    0.50
  -1  -1   4    2.38    0.41
   2   1  -5   39.25    2.10
   2   1  -5   40.36    1.77
  -2  -1   5   36.96    1.89
   3   1  -6   92.03    4.77
  -3  -1   6   97.57    4.26
   4   1  -7   38.94    2.51
  -4  -1   7   43.36    2.08
   5   1  -8   16.54    1.91
  -5  -1   8   19.90    1.25
   6   1  -9   18.58    2.04
  -6  -1   9   15.63    1.23
   7   1 -10    2.75    1.56
   8   1 -11   10.14    2.06
   9   1 -12   14.30    2.52
  10   1 -13    1.37    2.26
  11  -2  -7    1.71    1.25
  11  -2  -7   -0.09    0.89
  10  -2  -6    2.57    0.93
  10  -2  -6    3.12    1.22
   9  -2  -5    4.11    0.90
   9  -2  -5    5.33    1.22
   8  -2  -4   11.59    1.43
   7  -2  -3   15.87    1.56
   6  -2  -2    6.08    0.93
   5  -2  -1   19.77    1.39
   4  -2   0    3.69    0.59
   3  -2   1    8.09    0.69
   2  -2   2  157.97    7.57
   1  -2   3   68.15    3.04
   0  -2   4    2.57    0.44
  -1  -2   5   38.29    1.89
   2   2  -6  114.43    5.72
  -2  -2   6  118.33    5.18
   3   2  -7   45.65    2.53
  -3  -2   7   42.81    2.21
   4   2  -8   10.21    1.37
  -4  -2   8   11.47    1.00
   5   2  -9   19.38    1.97
  -5  -2   9   16.66    1.29
   6   2 -10   14.90    2.05
  -6  -2  10   14.93    1.25
   7   2 -11   18.40    2.30
  -7  -2  11   18.31    1.42
   8   2 -12    6.43    2.05
  -8  -2  12    6.40    1.08
   9   2 -13    3.05    2.17
  10   2 -14    1.03    2.40
  11  -3  -6    0.33    1.16
  11  -3  -6    1.15    0.96
  10  -3  -5    4.17    1.04
  10  -3  -5    5.20    1.34
   9  -3  -4    8.05    1.34
   8  -3  -3    5.40    1.12
   7  -3  -2    0.05    0.79
   6  -3  -1   14.61    1.38
   5  -3   0    3.21    0.67
   4  -3   1   52.40    2.77
   3  -3   2   61.77    3.17
   1  -3   4    4.82    0.56
   0  -3   5   57.57    2.70
  -1  -3   6   81.55    3.74
  -2  -3   7   41.59    2.13
   3   3  -8    6.55    1.03
  -3  -3   8    7.58    0.85
   4   3  -9   18.27    1.81
  -4  -3   9   19.75    1.35
   5   3 -10    8.67    1.61
  -5  -3  10   10.16    1.11
   6   3 -11   23.61    2.48
  -6  -3  11   19.99    1.53
   7   3 -12    5.51    1.92
  -7  -3  12    4.96    0.98
   8   3 -13    4.95    2.10
  -8  -3  13    3.94    1.02
   9   3 -14   -0.07    2.11
  -9  -3  14   -0.78    0.98
  11  -4  -5    0.73    0.93
  11  -4  -5    1.18    1.23
  10  -4  -4    3.29    1.20
  10  -4  -4    2.81    0.91
   9  -4  -3    6.59    1.28
   8  -4  -2   -0.04    0.86
   7  -4  -1    7.08    1.15
   6  -4   0    3.37    0.80
   5  -4   1   26.59    1.78
   4  -4   2   13.35    1.11
   3  -4   3    9.13    0.93
   1  -4   5   23.86    1.36
   0  -4   6   83.42    3.83
  -1  -4   7   33.29    1.82
  -2  -4   8   11.12    1.04
  -3  -4   9   16.42    1.27
   4   4 -10   13.76    1.65
  -4  -4  10   13.30    1.27
   5   4 -11   25.15    2.39
  -5  -4  11   23.88    1.66
   6   4 -12    2.13    1.53
  -6  -4  12    1.39    0.82
   7   4 -13    8.84    2.09
  -7  -4  13    9.46    1.26
   8   4 -14   -0.04    1.93
  -8  -4  14    1.55    0.95
   9   4 -15    1.03    2.31
  -9  -4  15    1.35    1.10
  11  -5  -4    2.05    1.27
  11  -5  -4    0.94    0.97
  10  -5  -3    0.85    1.15
   9  -5  -2    0.77    1.04
   8  -5  -1    8.15    1.37
   7  -5   0    1.25    0.87
   6  -5   1   13.32    1.48
   5  -5   2    0.38    0.68
   4  -5   3   29.46    1.92
   3  -5   4    8.85    1.11
   1  -5   6   52.20    2.57
   0  -5   7   49.48    2.51
  -1  -5   8   13.84    1.16
  -2  -5   9   15.55    1.30
  -3  -5  10    7.77    1.01
  -4  -5  11   21.01    1.56
  -5  -5  12   -0.26    0.66
   6   5 -13   12.58    2.10
  -6  -5  13    9.60    1.25
   7   5 -14    0.92    1.87
  -7  -5  14    1.61    0.93
   8   5 -15    4.32    2.31
  -8  -5  15    4.08    1.16
  10  -6  -2    0.55    1.24
   9  -6  -1    2.39    1.21
   8  -6   0    1.38    1.07
   7  -6   1   14.93    1.70
   6  -6   2    1.56    0.91
   5  -6   3    8.83    1.25
   4  -6   4    3.84    0.93
   3  -6   5   30.98    2.12
   1  -6   7   22.11    1.47
   0  -6   8   11.23    1.13
  -1  -6   9   13.91    1.32
  -2  -6  10   11.74    1.27
  -3  -6  11   17.37    1.45
  -4  -6  12    1.30    0.77
  -5  -6  13    8.36    1.16
  -6  -6  14    0.09    0.82
  -7  -6  15    4.76    1.18
  10  -7  -1   -0.77    1.29
   8  -7   1    2.32    1.27
   7  -7   2    3.26    1.24
   6  -7   3    8.32    1.40
   5  -7   4    5.04    1.22
   4  -7   5    5.21    1.16
   3  -7   6    0.38    0.83
   2  -7   7    8.56    1.01
   1  -7   8   10.28    1.12
   0  -7   9    5.79    0.96
  -1  -7  10    1.84    0.80
  -2  -7  11   14.33    1.40
  -3  -7  12    3.48    0.96
  -4  -7  13    7.42    1.16
  -5  -7  14    0.22    0.86
  -6  -7  15    4.20    1.11
   9  -8   1   -0.43    1.39
   8  -8   2    4.79    1.56
   7  -8   3    4.80    1.55
   6  -8   4   -0.25    1.20
   5  -8   5    9.75    1.61
   4  -8   6   -0.57    0.91
   3  -8   7   13.66    1.71
   1  -8   9    1.73    0.75
   0  -8  10    0.34    0.74
  -1  -8  11    5.82    1.08
  -2  -8  12    4.29    0.99
  -3  -8  13    4.02    1.03
  -4  -8  14    0.88    0.90
  -5  -8  15    3.01    1.09
   8  -9   3    2.81    1.68
   7  -9   4    0.41    1.55
   6  -9   5    5.87    1.64
   5  -9   6   -0.44    1.18
   4  -9   7    5.93    1.47
   3  -9   8    4.90    1.35
   1  -9  10    1.02    0.80
   0  -9  11    6.31    1.15
  -1  -9  12    7.05    1.18
  -2  -9  13    1.94    1.00
  -3  -9  14    0.10    0.90
  -4  -9  15    2.14    1.03
   6 -10   6   -0.53    1.49
   5 -10   7    1.74    1.41
   4 -10   8    3.80    1.48
   3 -10   9    1.76    1.32
   2 -10  10    0.20    0.79
   1 -10  11    1.87    0.96
   0 -10  12    4.20    1.11
  -1 -10  13    1.37    1.03
  -2 -10  14    0.77    1.07
   1 -12   8   -0.53    1.67
   2 -12   7   -0.02    1.67
   3  11 -11   -1.53    1.46
   2  11 -10    0.85    1.57
   1  11  -9    8.79    1.90
   0  11  -8    0.52    1.36
   1 -11   7    0.73    1.44
  -1  11  -7    1.83    1.30
   2 -11   6    2.38    1.47
   3 -11   5    5.58    1.58
   4 -11   4   -0.26    1.22
   5 -11   3    1.36    1.20
   4  10 -11    1.40    1.40
   3  10 -10    3.35    1.49
   2  10  -9    8.52    1.70
   1  10  -8    1.80    1.28
   0  10  -7    2.83    1.36
   1 -10   6    2.23    1.30
  -1  10  -6    1.46    1.25
   2 -10   5   11.01    1.73
   3 -10   4    3.93    1.30
   4 -10   3    1.90    1.08
   5 -10   2    0.95    1.05
   6 -10   1    0.28    0.88
   7 -10   0    0.60    0.95
  -7  -9  13    0.03    0.97
   5   9 -11    1.53    1.23
   4   9 -10    5.44    1.46
   3   9  -9    5.98    1.38
   2   9  -8    0.34    1.18
   1   9  -7   -0.49    1.05
   0  -9   6    6.08    1.24
   0   9  -6    2.54    1.15
   1  -9   5   20.71    1.96
  -1   9  -5   17.68    1.81
   2  -9   4    4.57    1.27
   3  -9   3    2.55    1.07
   4  -9   2    7.84    1.35
   5  -9   1    1.35    0.92
   6  -9   0    2.72    1.01
   7  -9  -1    1.62    0.92
   8  -9  -2    1.30    0.81
  -8  -8  13    0.16    1.01
   8   8 -13    1.40    2.10
   7   8 -12    2.34    1.84
   6   8 -11    2.28    1.60
   6   8 -11    1.91    1.16
   5   8 -10    6.98    1.38
   4   8  -9    6.88    1.27
   3   8  -8    5.41    1.23
   2   8  -7    0.85    1.07
   1   8  -6   14.94    1.63
   0  -8   5   25.22    1.79
   0   8  -5   22.30    1.99
   1  -8   4   13.93    1.54
  -1   8  -4   14.26    1.58
   2  -8   3    4.75    1.14
   3  -8   2    8.07    1.28
   4  -8   1    3.88    1.01
   5  -8   0   18.55    1.62
   6  -8  -1    2.78    0.96
   7  -8  -2    5.23    1.08
   8  -8  -3    1.06    0.76
   9  -8  -4    0.81    0.84
  -9  -7  13    1.19    1.18
   9   7 -13    1.67    2.17
  -8  -7  12    2.98    1.03
   8   7 -12    0.07    1.94
   7   7 -11   -0.53    1.60
   6   7 -10    8.23    1.29
   6   7 -10    5.78    1.69
   5   7  -9    2.20    1.28
   5   7  -9    4.32    1.05
   4   7  -8    6.65    1.22
   4   7  -8    6.32    1.31
   3   7  -7    3.19    1.06
   2   7  -6   21.81    1.85
   1   7  -5   23.09    1.85
   0  -7   4   23.78    1.66
   0   7  -4   27.46    1.87
   1  -7   3   12.58    1.29
  -1   7  -3   11.28    1.27
   2  -7   2   23.01    1.68
   3  -7   1    9.20    1.25
   4  -7   0   17.18    1.46
   5  -7  -1    3.39    0.89
   6  -7  -2    9.66    1.22
   7  -7  -3    0.37    0.75
   8  -7  -4    3.88    0.96
   9  -7  -5    0.93    0.89
  10   6 -13    1.92    2.41
  -9  -6  12    2.89    1.14
   9   6 -12   -0.10    2.04
   8   6 -11    0.84    1.82
   7   6 -10    8.77    1.25
   7   6 -10    8.86    1.95
   6   6  -9    1.18    0.85
   6   6  -9    1.20    1.39
   5   6  -8    3.99    1.36
   5   6  -8    8.34    1.19
   4   6  -7    0.30    0.85
   4   6  -7   -0.74    0.97
   3   6  -6   25.20    1.98
   3   6  -6   31.72    2.02
   2   6  -5   11.42    1.30
   1   6  -4   23.32    1.64
   0  -6   3   36.22    1.91
   0   6  -3   35.30    2.06
   1  -6   2   23.56    1.52
  -1   6  -2   22.82    1.56
   2  -6   1   13.15    1.27
   3  -6   0   34.96    2.03
   4  -6  -1    0.24    0.65
   5  -6  -2   11.68    1.35
   6  -6  -3    3.52    0.89
   7  -6  -4   10.46    1.28
   8  -6  -5    2.49    0.83
   9  -6  -6    3.01    0.99
  10  -6  -7   -0.78    1.03
  10   5 -12    0.18    2.25
  -9  -5  11    1.04    0.94
   9   5 -11    1.95    1.97
   8   5 -10    6.82    2.01
   7   5  -9    3.07    0.90
   7   5  -9    3.50    1.59
   6   5  -8    7.94    1.65
   6   5  -8    7.59    1.09
   5   5  -7   -0.15    1.14
   5   5  -7   -0.05    0.74
   4   5  -6   22.11    1.68
   4   5  -6   21.70    1.85
   3   5  -5    3.51    0.85
   3   5  -5    2.37    0.81
   2   5  -4   21.87    1.53
   1   5  -3   15.80    1.19
   0  -5   2   13.92    0.93
   0   5  -2   10.39    1.04
   1  -5   1   12.97    0.99
  -1   5  -1   11.81    1.01
   2  -5   0   51.56    2.54
   3  -5  -1   20.62    1.38
   4  -5  -2   26.25    1.67
   5  -5  -3    0.88    0.67
   6  -5  -4    4.75    0.87
   7  -5  -5    1.53    0.75
   8  -5  -6    4.67    1.06
   9  -5  -7    0.76    0.98
  10  -5  -8    2.06    1.12
  11   4 -12    4.56    2.25
  10   4 -11   -0.47    1.93
  -9  -4  10    8.11    1.16
   9   4 -10    7.76    2.04
   8   4  -9    8.12    1.74
   7   4  -8    7.99    1.04
   7   4  -8    6.94    1.56
   6   4  -7    0.99    1.19
   6   4  -7    0.55    0.74
   5   4  -6   30.77    1.86
   5   4  -6   29.45    2.20
   4   4  -5   38.60    2.31
   4   4  -5   37.02    2.08
   3   4  -4   66.59    3.27
   3   4  -4   57.19    3.00
   2   4  -3   49.02    2.43
   1   4  -2   10.02    0.87
   0  -4   1    4.78    0.53
   0   4  -1    3.65    0.56
   1  -4   0   13.05    0.89
   2  -4  -1   55.73    2.62
   3  -4  -2   11.76    1.10
   4  -4  -3    7.57    0.98
   5  -4  -4   30.28    1.79
   6  -4  -5    0.28    0.65
   7  -4  -6   13.63    1.31
   8  -4  -7    3.70    1.03
   9  -4  -8    5.12    1.27
  10  -4  -9   -0.79    1.20
  11   3 -11    0.73    1.96
  10   3 -10    8.62    2.03
   9   3  -9   11.42    1.95
   8   3  -8    7.46    1.53
   7   3  -7    4.22    1.28
   7   3  -7    2.44    0.75
   6   3  -6   43.21    2.86
   5   3  -5    4.94    0.75
   5   3  -5    5.65    1.04
   4   3  -4   86.22    3.93
   4   3  -4   84.44    4.37
   3   3  -3  243.24   10.74
   3   3  -3  256.02   11.88
   2   3  -2   19.02    1.13
   1   3  -1    3.94    0.50
   0  -3   0    6.12    0.50
   0   3   0    6.75    0.61
   1  -3  -1  165.52    6.73
  -1   3   1  154.13    6.91
   2  -3  -2   45.02    2.13
   3  -3  -3    1.28    0.50
   4  -3  -4   17.49    1.20
   5  -3  -5   32.47    1.87
   6  -3  -6    6.51    1.01
   7  -3  -7    7.22    1.18
   8  -3  -8    5.03    1.18
   9  -3  -9   -0.51    1.08
  10  -3 -10   -0.26    1.26
  11   2 -10    3.02    1.73
  10   2  -9   15.10    2.04
   9   2  -8    2.60    1.52
   8   2  -7    0.44    1.19
   7   2  -6   19.50    1.96
   6   2  -5   14.44    1.49
   5   2  -4   36.99    2.26
   4   2  -3   82.24    4.24
   4   2  -3   84.87    3.76
   3   2  -2   27.60    1.68
   3   2  -2   31.35    1.49
   2   2  -1  191.76    8.23
  -1  -2   0   31.14    1.39
   1   2   0   31.43    1.53
   0  -2  -1  158.19    6.62
   0   2   1  160.10    6.86
   1  -2  -2   60.50    2.66
  -1   2   2   60.65    2.75
   2  -2  -3    6.29    0.60
   3  -2  -4   16.45    1.07
   4  -2  -5   45.76    2.27
   5  -2  -6   14.05    1.21
   6  -2  -7   11.78    1.30
   7  -2  -8    7.39    1.23
   8  -2  -9    2.36    1.18
   9  -2 -10    3.67    1.32
  10  -2 -11    4.57    1.53
  10  -2 -11    4.12    1.82
  12   1 -10    2.06    1.68
  11   1  -9    8.65    1.89
  10   1  -8    1.30    1.41
   9   1  -7   -0.33    1.11
   8   1  -6   19.44    1.91
   7   1  -5   26.56    2.17
   6   1  -4   25.88    1.88
   5   1  -3   26.64    1.78
   4   1  -2   14.14    1.14
   3   1  -1    4.71    0.60
   2   1   0   37.22    1.73
   2   1   0   37.42    1.94
   1   1   1  173.54    7.44
   0  -1  -2    4.92    0.46
   0   1   2    5.58    0.51
   1  -1  -3    2.94    0.44
  -1   1   3    2.67    0.44
   2  -1  -4   40.93    1.96
  -2   1   4   43.80    2.00
   3  -1  -5   92.22    4.17
  -3   1   5   98.20    4.24
   4  -1  -6   42.40    2.19
   4  -1  -6   45.17    2.58
   5  -1  -7   18.97    1.43
   6  -1  -8   21.60    1.63
   6  -1  -8   17.12    1.96
   7  -1  -9    1.64    1.00
   7  -1  -9    2.64    1.40
   8  -1 -10    7.89    1.78
   8  -1 -10   10.34    1.47
   9  -1 -11    9.58    2.05
   9  -1 -11   11.89    1.61
  10  -1 -12    2.92    1.93
  12   0  -9    8.42    1.88
  11   0  -8    0.45    1.31
  10   0  -7    2.03    1.24
   9   0  -6    5.20    1.35
   8   0  -5   26.67    2.13
   7   0  -4   20.48    1.81
   6   0  -3   41.78    2.48
   5   0  -2   16.13    1.26
   4   0  -1    4.04    0.63
   3   0   0    7.75    0.71
   2   0   1  165.90    7.87
   1   0   2    5.19    0.47
   0   0   3    0.20    0.30
   1   0  -4   24.97    1.21
  -1   0   4   23.89    1.26
   2   0  -5   85.33    4.14
   2   0  -5   82.76    3.62
  -2   0   5   83.26    3.76
   3   0  -6   -0.41    0.63
   3   0  -6    0.95    0.46
  -3   0   6    0.73    0.47
   4   0  -7    6.37    1.08
   4   0  -7    8.29    0.87
  -4   0   7    7.62    0.82
   5   0  -8   32.43    2.56
   5   0  -8   39.84    2.04
   6   0  -9    1.22    1.40
   6   0  -9    1.88    0.95
   7   0 -10   -0.45    1.40
   8   0 -11    8.02    1.96
   9   0 -12    5.33    2.06
  10   0 -13    2.03    2.17
  12  -1  -8    0.96    1.42
  11  -1  -7    1.08    1.22
  10  -1  -6    2.35    1.27
   9  -1  -5   15.07    1.70
   8  -1  -4    7.76    1.29
   7  -1  -3    7.20    1.11
   6  -1  -2   17.26    1.41
   5  -1  -1   10.70    1.04
   4  -1   0   10.53    0.90
   3  -1   1  136.43    6.57
   2  -1   2   57.42    2.87
   1  -1   3    2.17    0.36
   0  -1   4   23.04    1.20
  -1  -1   5   87.77    3.93
   2   1  -6    1.30    0.58
  -2  -1   6    1.19    0.46
   3   1  -7    0.31    0.69
   3   1  -7    1.20    0.47
  -3  -1   7    1.36    0.52
   4   1  -8   27.82    2.14
  -4  -1   8   30.11    1.66
   5   1  -9   21.17    2.22
  -5  -1   9   23.66    1.50
   6   1 -10    4.84    1.63
  -6  -1  10    6.02    0.96
   7   1 -11    8.58    1.96
  -7  -1  11    8.59    1.14
   8   1 -12    6.25    2.04
   9   1 -13    0.35    2.06
  10   1 -14    0.04    2.20
  12  -2  -7    2.43    1.38
  11  -2  -6    1.87    0.95
  11  -2  -6    1.62    1.28
  10  -2  -5    8.09    1.46
  10  -2  -5    8.22    1.13
   9  -2  -4    3.42    1.13
   8  -2  -3    1.62    0.92
   7  -2  -2   13.10    1.45
   6  -2  -1    8.37    1.03
   5  -2   0   37.81    2.16
   4  -2   1   43.64    2.36
   3  -2   2   39.67    2.13
   1  -2   4   37.51    1.80
   0  -2   5   80.27    3.63
  -1  -2   6    1.34    0.45
  -2  -2   7    2.31    0.55
   3   2  -8   32.32    2.06
  -3  -2   8   30.48    1.74
   4   2  -9   16.79    1.63
  -4  -2   9   14.08    1.20
   5   2 -10    4.18    1.45
  -5  -2  10    5.76    0.87
   6   2 -11    5.80    1.68
  -6  -2  11    6.39    0.98
   7   2 -12   10.03    2.14
  -7  -2  12   10.27    1.23
   8   2 -13   -0.21    1.95
  -8  -2  13   -1.30    0.90
   9   2 -14   -3.01    2.00
  12  -3  -6    0.06    0.97
  11  -3  -5    4.43    1.10
  11  -3  -5    4.51    1.39
  10  -3  -4    2.15    1.17
   9  -3  -3   -0.15    0.89
   8  -3  -2    5.92    1.12
   7  -3  -1    6.52    1.07
   6  -3   0   23.85    1.75
   5  -3   1   18.49    1.39
   4  -3   2    7.85    0.84
   3  -3   3    1.23    0.49
   1  -3   5   86.54    3.92
   0  -3   6    0.88    0.47
  -1  -3   7    1.13    0.51
  -2  -3   8   31.59    1.80
  -3  -3   9   21.16    1.45
   4   3 -10    5.87    1.29
  -4  -3  10    6.46    0.93
   5   3 -11    1.25    1.28
  -5  -3  11    0.40    0.71
   6   3 -12   13.15    2.08
  -6  -3  12   13.12    1.31
   7   3 -13    0.51    1.74
  -7  -3  13    0.64    0.89
   8   3 -14   -0.21    2.01
  -8  -3  14    1.26    0.98
   9   3 -15    3.24    2.35
  -9  -3  15    4.19    1.35
  11  -4  -4    2.35    0.97
  11  -4  -4   -0.01    1.22
  10  -4  -3   -0.21    1.06
   9  -4  -2    4.67    1.24
   8  -4  -1    2.86    1.04
   7  -4   0   13.63    1.46
   6  -4   1    0.56    0.69
   5  -4   2   25.54    1.79
   4  -4   3    4.40    0.76
   3  -4   4   13.77    1.22
   1  -4   6   40.46    2.07
   0  -4   7    7.64    0.87
  -1  -4   8   29.24    1.72
  -2  -4   9   12.90    1.16
  -3  -4  10    5.31    0.91
  -4  -4  11    0.60    0.68
  -5  -4  12   15.32    1.39
   6   4 -13    3.76    1.68
  -6  -4  13    2.25    0.91
   7   4 -14    4.76    2.03
  -7  -4  14    4.48    1.10
   8   4 -15    0.40    2.14
  -8  -4  15    0.02    1.04
  11  -5  -3   -0.26    1.28
  10  -5  -2   -0.09    1.19
   9  -5  -1    2.24    1.18
   8  -5   0   15.09    1.71
   7  -5   1    2.15    0.98
   6  -5   2   11.25    1.38
   5  -5   3    0.58    0.67
   4  -5   4   31.27    2.09
   3  -5   5   26.33    1.92
   1  -5   7   14.17    1.15
   0  -5   8   27.60    1.69
  -1  -5   9   19.73    1.44
  -2  -5  10    5.15    0.89
  -3  -5  11    0.65    0.68
  -4  -5  12   14.95    1.39
  -5  -5  13   -0.70    0.74
  -6  -5  14    2.90    1.01
  -7  -5  15    0.13    0.91
  10  -6  -1   -0.61    1.18
   9  -6   0    2.12    1.28
   8  -6   1    1.42    1.15
   7  -6   2    8.86    1.43
   6  -6   3    2.57    0.96
   5  -6   4    5.39    1.07
   4  -6   5    0.64    0.76
   3  -6   6    4.76    1.09
   1  -6   8   12.97    1.19
   0  -6   9    2.25    0.75
  -1  -6  10    5.49    0.92
  -2  -6  11    2.86    0.82
  -3  -6  12   14.36    1.39
  -4  -6  13    1.37    0.85
  -5  -6  14    3.80    0.99
  -6  -6  15    1.29    0.91
  -7  -6  16    3.23    1.17
  10  -7   0    1.17    1.42
   9  -7   1    3.44    1.45
   8  -7   2    5.47    1.49
   7  -7   3    0.26    1.12
   6  -7   4   10.49    1.55
   5  -7   5    0.23    0.96
   4  -7   6   14.11    1.67
   2  -7   8    4.66    0.85
   1  -7   9    1.50    0.74
   0  -7  10    0.66    0.74
  -1  -7  11    5.75    1.00
  -2  -7  12    6.51    1.06
  -3  -7  13    1.38    0.87
  -4  -7  14    3.25    1.00
  -5  -7  15    0.62    0.90
  -6  -7  16    1.72    1.02
   9  -8   2    1.12    1.55
   8  -8   3   -1.28    1.33
   7  -8   4    4.78    1.57
   6  -8   5    0.75    1.21
   5  -8   6    6.65    1.48
   4  -8   7    3.75    1.17
   3  -8   8    6.31    1.31
   1  -8  10    7.59    1.12
   0  -8  11    6.90    1.14
  -1  -8  12    2.98    0.97
  -2  -8  13    0.16    0.88
  -3  -8  14    1.52    0.95
  -4  -8  15    0.35    0.94
   8  -9   4    1.21    1.65
   7  -9   5    0.12    1.55
   6  -9   6    1.52    1.40
   5  -9   7    0.21    1.25
   4  -9   8    6.06    1.42
   3  -9   9    0.93    1.13
   1  -9  11    7.67    1.23
   0  -9  12    3.16    1.08
  -1  -9  13    0.12    0.91
  -2  -9  14    0.19    0.94
  -3  -9  15    2.44    1.10
   5 -10   8    1.58    1.45
   4 -10   9    0.75    1.33
   3 -10  10   -0.13    1.20
   2 -10  11    3.45    1.02
   1 -10  12    0.84    0.97
   0 -10  13   -0.44    0.97
   1  12  -9    1.61    1.72
   0  12  -8    2.28    1.76
   1 -12   7   -0.98    1.53
  -1  12  -7   -0.76    1.32
   2 -12   6    3.52    1.84
   3 -12   5   -0.32    1.60
   4  11 -11    3.73    1.64
   3  11 -10    4.18    1.70
   2  11  -9    0.68    1.60
   1  11  -8   -0.01    1.50
   0  11  -7   -0.38    1.44
   1 -11   6    9.46    1.81
  -1  11  -6    9.92    1.79
   2 -11   5    1.75    1.43
   3 -11   4    0.11    1.33
   4 -11   3    0.61    1.32
   5 -11   2   -0.56    1.23
   6  10 -12    0.54    1.33
   5  10 -11    3.35    1.46
   4  10 -10    2.89    1.46
   3  10  -9    0.47    1.41
   2  10  -8    2.21    1.41
   1  10  -7    1.10    1.27
   0 -10   6   11.84    1.62
   0  10  -6   10.00    1.67
   1 -10   5    1.33    1.24
  -1  10  -5    1.25    1.11
   2 -10   4    2.76    1.26
   3 -10   3    3.25    1.27
   4 -10   2    3.42    1.23
   5 -10   1    0.84    1.06
   6 -10   0    0.87    0.87
   7 -10  -1    0.45    0.83
   7   9 -12    1.39    1.26
   6   9 -11    2.59    1.31
   5   9 -10    1.83    1.25
   4   9  -9    4.81    1.43
   3   9  -8    2.79    1.21
   2   9  -7    5.23    1.38
   1   9  -6   14.39    1.81
   0  -9   5    7.10    1.20
   0   9  -5    5.48    1.38
   2  -9   3    3.82    1.16
   3  -9   2   10.53    1.50
   4  -9   1   11.91    1.53
   5  -9   0    2.28    1.00
   6  -9  -1    2.85    0.93
   7  -9  -2    0.27    0.73
   8  -9  -3    0.59    0.86
   8   8 -12    1.05    1.92
   7   8 -11    4.29    1.86
   7   8 -11    2.39    1.24
   6   8 -10    1.71    1.13
   6   8 -10    2.69    1.54
   5   8  -9    6.30    1.33
   4   8  -8    5.30    1.26
   3   8  -7    8.35    1.35
   2   8  -6   16.44    1.82
   1   8  -5   15.11    1.65
   1  -8   3   13.91    1.47
  -1   8  -3   15.73    1.59
   2  -8   2   15.42    1.61
   3  -8   1   12.01    1.45
   4  -8   0    4.77    1.06
   5  -8  -1    9.58    1.35
   6  -8  -2    1.37    0.79
   7  -8  -3    4.06    1.01
   8  -8  -4    0.65    0.80
  -9  -7  12    1.33    1.06
   9   7 -12    0.13    2.03
   8   7 -11    3.12    1.94
   8   7 -11    2.37    1.17
   7   7 -10    0.81    1.01
   7   7 -10    0.97    1.64
   6   7  -9    3.08    1.55
   6   7  -9    8.82    1.36
   5   7  -8    2.38    1.00
   5   7  -8    1.43    1.16
   4   7  -7   14.92    1.52
   4   7  -7   10.43    1.44
   3   7  -6    7.72    1.34
   2   7  -5   21.47    1.73
   0  -7   3   22.58    1.52
   0   7  -3   24.42    1.76
   1  -7   2   20.26    1.53
  -1   7  -2   22.31    1.65
   2  -7   1   24.20    1.70
   3  -7   0    2.64    0.88
   4  -7  -1   10.42    1.29
   5  -7  -2    4.91    1.04
   6  -7  -3    8.95    1.19
   7  -7  -4    1.06    0.74
   8  -7  -5    2.12    0.92
   9  -7  -6   -0.68    0.84
 -10  -6  12    0.37    1.12
  10   6 -12    2.07    2.30
   9   6 -11    5.49    2.14
   8   6 -10    0.68    0.97
   8   6 -10    1.13    1.79
   7   6  -9    7.00    1.17
   7   6  -9    6.77    1.86
   6   6  -8    1.76    1.32
   6   6  -8    0.54    0.87
   5   6  -7    9.18    1.59
   5   6  -7   12.26    1.37
   4   6  -6    3.38    1.01
   4   6  -6    1.27    1.00
   3   6  -5   23.22    1.59
   3   6  -5   15.50    1.53
   2   6  -4    6.20    0.98
   1   6  -3   21.55    1.57
   0  -6   2   20.89    1.33
   0   6  -2   24.17    1.56
   1  -6   1   42.49    2.10
  -1   6  -1   36.14    2.13
   2  -6   0   21.09    1.46
   3  -6  -1   34.27    2.02
   4  -6  -2    2.67    0.73
   5  -6  -3    5.03    0.93
   6  -6  -4    0.45    0.69
   7  -6  -5    5.06    1.00
   8  -6  -6    0.83    0.86
   9  -6  -7    2.13    1.12
 -10  -5  11    3.78    1.19
  10   5 -11    4.01    2.13
   9   5 -10    2.33    1.90
   8   5  -9    8.23    1.19
   8   5  -9    7.94    1.87
   7   5  -8    2.64    0.96
   7   5  -8    2.85    1.48
   6   5  -7   11.90    1.73
   6   5  -7   16.11    1.45
   5   5  -6    1.31    1.07
   5   5  -6    1.33    0.88
   4   5  -5   39.59    2.53
   4   5  -5   42.27    2.31
   3   5  -4    2.88    0.75
   3   5  -4    2.14    0.79
   2   5  -3   19.24    1.41
   1   5  -2   10.41    1.01
   0  -5   1    5.77    0.66
   0   5  -1    5.24    0.73
   1  -5   0   58.38    2.68
  -1   5   0   55.80    2.77
   2  -5  -1   13.11    1.02
   3  -5  -2    6.88    0.89
   4  -5  -3   36.11    2.03
   5  -5  -4    0.82    0.67
   6  -5  -5   15.28    1.38
   7  -5  -6    0.98    0.81
   8  -5  -7    6.73    1.20
   9  -5  -8   -0.93    0.99
  10  -5  -9    0.51    1.26
  11   4 -11    3.53    2.09
  10   4 -10    4.34    1.91
   9   4  -9    5.91    1.85
   8   4  -8    4.71    1.50
   8   4  -8    4.32    0.95
   7   4  -7   15.63    1.89
   7   4  -7   17.72    1.44
   6   4  -6    2.83    0.81
   6   4  -6    1.60    1.14
   5   4  -5   55.85    2.78
   5   4  -5   52.76    3.16
   4   4  -4  148.16    6.46
   4   4  -4  142.23    7.14
   3   4  -3   57.91    2.94
   3   4  -3   53.15    2.73
   2   4  -2    5.38    0.68
  -1  -4   1   10.17    0.67
   1   4  -1    9.06    0.85
   0  -4   0  125.49    5.33
   0   4   0  125.32    5.56
   1  -4  -1   61.92    2.76
  -1   4   1   58.49    2.85
   2  -4  -2    5.17    0.71
   3  -4  -3   16.04    1.15
   4  -4  -4   40.45    2.17
   5  -4  -5   10.12    1.16
   6  -4  -6    0.58    0.75
   7  -4  -7    9.69    1.34
   8  -4  -8   -0.70    0.92
   9  -4  -9    1.08    1.20
  10  -4 -10    1.57    1.40
  11   3 -10    7.01    2.02
  10   3  -9    5.05    1.66
   9   3  -8    3.72    1.65
   8   3  -7   10.41    1.69
   7   3  -6    7.48    1.49
   7   3  -6    8.73    0.98
   6   3  -5   28.64    1.76
   6   3  -5   30.38    2.19
   5   3  -4    4.99    0.70
   5   3  -4    3.06    0.88
   4   3  -3   73.04    3.73
   4   3  -3   71.73    3.38
   3   3  -2   11.75    0.89
   3   3  -2   12.01    0.96
   2   3  -1    7.03    0.68
  -1  -3   0  138.52    5.76
   1   3   0  137.33    6.03
   0  -3  -1   51.40    2.27
   0   3   1   49.86    2.40
   1  -3  -2    6.76    0.65
  -1   3   2    3.95    0.58
   2  -3  -3   16.91    1.06
  -2   3   3   15.42    1.07
   3  -3  -4   76.54    3.51
   4  -3  -5   19.73    1.37
   5  -3  -6    6.65    1.08
   6  -3  -7    7.73    1.16
   7  -3  -8   10.43    1.44
   8  -3  -9   12.26    1.71
   9  -3 -10    2.40    1.32
  10  -3 -11   -1.38    1.37
  12   2 -10    5.24    1.96
  11   2  -9    1.66    1.70
  10   2  -8    3.62    1.58
   9   2  -7    5.43    1.45
   8   2  -6   16.16    1.77
   7   2  -5   21.43    1.96
   6   2  -4    7.10    1.20
   5   2  -3   30.03    1.96
   5   2  -3   30.42    1.63
   4   2  -2    4.34    0.55
   4   2  -2    5.58    0.80
   3   2  -1   10.23    0.71
   3   2  -1    7.16    0.81
   2   2   0  144.91    6.29
  -1  -2  -1   54.92    2.37
   1   2   1   53.74    2.51
   0  -2  -2    2.60    0.40
   0   2   2    2.71    0.45
   1  -2  -3   39.17    1.83
  -1   2   3   38.01    1.89
   2  -2  -4  125.55    5.35
  -2   2   4  122.75    5.48
   3  -2  -5   52.88    2.55
  -3   2   5   53.19    2.55
   4  -2  -6   12.14    1.14
   5  -2  -7   23.02    1.66
   6  -2  -8   17.41    1.62
   7  -2  -9   21.45    1.88
   8  -2 -10    6.12    1.71
   8  -2 -10    6.47    1.39
   9  -2 -11    3.38    1.75
   9  -2 -11    4.03    1.46
  12   1  -9    0.29    1.67
  11   1  -8    3.14    1.52
  10   1  -7    1.39    1.24
   9   1  -6   19.01    1.96
   8   1  -5   11.05    1.54
   7   1  -4    8.93    1.31
   6   1  -3   26.48    1.89
   5   1  -2   16.63    1.36
   4   1  -1   13.46    1.09
   3   1   0  166.67    7.91
   3   1   0  164.05    7.11
   2   1   1   52.56    2.40
   1   1   2    2.14    0.42
   0  -1  -3   23.20    1.17
   0   1   3   23.43    1.25
   1  -1  -4   87.72    3.79
  -1   1   4   87.55    3.93
   2  -1  -5    1.46    0.46
  -2   1   5    1.68    0.48
   3  -1  -6    1.14    0.53
  -3   1   6    1.87    0.54
   4  -1  -7   35.69    1.94
  -4   1   7   34.51    1.89
   5  -1  -8   23.58    1.67
  -5   1   8   21.75    1.49
   6  -1  -9    7.12    1.21
   6  -1  -9    3.42    1.42
   7  -1 -10   10.06    1.44
   7  -1 -10    6.64    1.68
   8  -1 -11    7.49    1.89
   8  -1 -11    6.36    1.37
   9  -1 -12    0.18    1.85
  10  -1 -13    1.23    2.10
  12   0  -8    4.02    1.62
  11   0  -7    0.24    1.24
  10   0  -6   10.34    1.62
   9   0  -5    4.14    1.24
   8   0  -4    0.35    1.05
   7   0  -3   16.21    1.61
   6   0  -2   16.49    1.43
   4   0   0  116.70    5.71
   3   0   1   46.70    2.42
   2   0   2    1.79    0.34
   2   0   2    2.01    0.37
   1   0   3   22.71    1.19
   0   0   4  165.63    7.17
   1   0  -5    0.84    0.37
  -1   0   5    1.22    0.42
   2   0  -6   -0.43    0.51
   2   0  -6    0.52    0.44
  -2   0   6    0.46    0.48
   3   0  -7    7.64    1.03
   3   0  -7   10.34    0.93
  -3   0   7   11.04    1.01
   4   0  -8  114.06    4.87
   4   0  -8  106.14    5.63
  -4   0   8  107.82    4.98
   5   0  -9   12.85    1.29
   5   0  -9    8.23    1.55
  -5   0   9   12.66    1.23
   6   0 -10    5.83    1.14
   6   0 -10    3.55    1.49
  -6   0  10    4.48    0.96
   7   0 -11    0.59    1.65
   7   0 -11    1.21    1.06
   8   0 -12    3.70    1.95
   9   0 -13    3.56    2.12
  12  -1  -7    1.70    1.35
  11  -1  -6    6.80    1.50
  10  -1  -5    1.12    1.22
   9  -1  -4    1.66    1.05
   8  -1  -3    8.20    1.27
   7  -1  -2   13.24    1.45
   6  -1  -1   27.57    1.83
   5  -1   0   45.71    2.52
   4  -1   1   51.34    2.72
   3  -1   2    3.85    0.52
   2  -1   3   36.72    1.99
   1  -1   4   84.62    3.78
   0  -1   5    1.10    0.41
  -1  -1   6    3.12    0.58
  -2  -1   7    9.41    0.91
   3   1  -8   86.61    4.46
  -3  -1   8   85.04    4.00
   4   1  -9   12.76    1.14
   4   1  -9    9.95    1.41
  -4  -1   9   13.27    1.21
   5   1 -10    4.43    1.42
   5   1 -10    1.58    0.86
  -5  -1  10    3.51    0.86
   6   1 -11    4.10    1.61
  -6  -1  11    3.19    0.97
   7   1 -12    1.65    1.77
  -7  -1  12    0.26    0.90
   8   1 -13    2.85    2.03
  -8  -1  13    0.36    1.05
   9   1 -14    4.61    2.42
  12  -2  -6    2.93    1.47
  11  -2  -5    0.30    1.22
  11  -2  -5    1.22    0.85
  10  -2  -4   -0.72    1.09
   9  -2  -3    2.84    1.11
   8  -2  -2    9.59    1.29
   7  -2  -1   12.54    1.37
   6  -2   0   17.38    1.45
   5  -2   1   10.55    1.07
   4  -2   2    4.43    0.66
   3  -2   3   13.16    1.02
   2  -2   4  115.89    5.09
   1  -2   5    1.44    0.46
   0  -2   6    0.25    0.43
  -1  -2   7   10.05    0.90
  -2  -2   8  117.90    5.34
  -3  -2   9   10.36    1.08
   4   2 -10    4.02    1.23
  -4  -2  10    3.87    0.87
   5   2 -11    5.56    1.47
  -5  -2  11    6.11    1.01
   6   2 -12   11.51    2.05
  -6  -2  12   11.58    1.36
   7   2 -13    4.40    1.98
  -7  -2  13    4.93    1.18
   8   2 -14    6.51    2.33
  -8  -2  14    4.92    1.25
   9   2 -15    2.05    2.35
  -9  -2  15    1.15    1.31
  12  -3  -5    1.05    0.99
  12  -3  -5   -0.22    1.30
  11  -3  -4    0.72    1.25
  10  -3  -3    1.98    1.19
   9  -3  -2    5.96    1.25
   8  -3  -1    6.51    1.21
   7  -3   0    1.70    0.81
   6  -3   1   19.86    1.61
   5  -3   2    7.28    0.97
   4  -3   3   14.50    1.17
   3  -3   4   71.77    3.75
   1  -3   6    1.77    0.52
   0  -3   7   10.35    0.98
  -1  -3   8   83.86    3.94
  -2  -3   9   10.72    1.08
  -3  -3  10    0.29    0.62
  -4  -3  11    5.77    0.95
   5   3 -12   20.80    2.17
  -5  -3  12   13.69    1.41
   6   3 -13    8.93    1.96
  -6  -3  13    8.23    1.23
   7   3 -14    3.54    1.98
  -7  -3  14    1.84    1.08
   8   3 -15    6.57    2.39
  -8  -3  15    2.78    1.22
  11  -4  -3    0.42    1.25
  10  -4  -2    2.77    1.25
   9  -4  -1    7.67    1.39
   8  -4   0    3.91    1.05
   7  -4   1    7.17    1.17
   6  -4   2    1.76    0.82
   5  -4   3   30.80    2.02
   4  -4   4   34.07    2.15
   3  -4   5   17.10    1.44
   1  -4   7   29.89    1.71
   0  -4   8   94.49    4.41
  -1  -4   9   11.31    1.15
  -2  -4  10    4.47    0.87
  -3  -4  11    5.38    0.95
  -4  -4  12    8.04    1.12
  -5  -4  13    5.77    1.04
  -6  -4  14    0.06    0.88
  -7  -4  15    4.45    1.16
  -8  -4  16   -0.57    1.13
  11  -5  -2    0.96    1.31
  10  -5  -1    0.56    1.19
   9  -5   0   -0.03    1.06
   8  -5   1    7.75    1.42
   7  -5   2    2.43    1.02
   6  -5   3    5.31    1.12
   5  -5   4    0.17    0.71
   4  -5   5    8.74    1.23
   3  -5   6    2.76    0.92
   2  -5   7   17.87    1.26
   1  -5   8   18.64    1.37
   0  -5   9    9.33    1.09
  -1  -5  10    3.50    0.86
  -2  -5  11    5.59    0.95
  -3  -5  12   15.04    1.39
  -4  -5  13    5.14    1.01
  -5  -5  14    0.43    0.76
  -6  -5  15    4.32    1.10
  -7  -5  16   -0.11    1.05
   9  -6   1    3.15    1.38
   8  -6   2   -0.04    1.11
   7  -6   3   10.02    1.52
   6  -6   4    0.06    0.91
   5  -6   5   14.98    1.65
   4  -6   6    1.33    0.85
   2  -6   8   11.27    1.11
   1  -6   9    5.57    0.94
   0  -6  10    4.10    0.88
  -1  -6  11    1.72    0.82
  -2  -6  12    8.65    1.20
  -3  -6  13    4.73    1.00
  -4  -6  14   -0.14    0.80
  -5  -6  15    4.92    1.09
  -6  -6  16    0.48    0.95
  10  -7   1   -0.20    1.44
   9  -7   2   -0.57    1.32
   8  -7   3    4.65    1.50
   7  -7   4    0.89    1.23
   6  -7   5    7.33    1.48
   5  -7   6    0.42    0.95
   4  -7   7    8.03    1.32
   1  -7  10    6.01    1.00
   0  -7  11    0.37    0.76
  -1  -7  12   -0.03    0.79
  -2  -7  13    4.03    1.01
  -3  -7  14    2.00    0.91
  -4  -7  15    1.47    0.94
  -5  -7  16   -0.08    0.92
   9  -8   3   -0.23    1.56
   8  -8   4   -0.52    1.45
   7  -8   5    2.22    1.41
   6  -8   6   -0.87    1.05
   5  -8   7   10.59    1.75
   4  -8   8   -1.09    0.89
   2  -8  10    4.03    0.91
   1  -8  11    5.80    1.05
   0  -8  12    4.03    1.02
  -1  -8  13    1.27    0.93
  -2  -8  14    2.78    1.00
  -3  -8  15    1.65    1.06
  -4  -8  16    0.12    0.94
   7  -9   6   -1.05    1.41
   6  -9   7    1.95    1.41
   5  -9   8   -0.27    1.21
   4  -9   9    1.41    1.13
   3  -9  10    3.44    1.26
   2  -9  11    1.53    0.85
   1  -9  12   -0.43    0.82
   0  -9  13    0.65    0.94
  -1  -9  14    1.55    1.02
  -2  -9  15    0.32    1.01
   4 -10  10    2.84    1.37
   3 -10  11    0.40    1.22
   2 -10  12    0.44    0.89
   2  12  -9    0.90    1.82
   1  12  -8    2.51    1.87
   0  12  -7    4.74    1.94
   1 -12   6   -0.99    1.53
  -1  12  -6    1.62    1.54
   2 -12   5    0.30    1.68
   3 -12   4   -0.91    1.60
   4  11 -10    1.22    1.61
   3  11  -9   -1.68    1.59
   2  11  -8    0.95    1.57
   1  11  -7    7.22    1.71
   0 -11   6   -0.08    1.19
   0  11  -6   -0.33    1.37
   1 -11   5    0.97    1.41
  -1  11  -5    2.07    1.28
   2 -11   4    1.35    1.42
   3 -11   3    5.52    1.50
   4 -11   2    0.09    1.21
   5 -11   1    0.37    1.16
   6  10 -11    1.63    1.40
   5  10 -10    4.37    1.57
   4  10  -9    2.43    1.47
   3  10  -8    2.94    1.53
   2  10  -7   12.14    1.87
   1  10  -6    2.85    1.47
   0 -10   5    3.45    1.20
   0  10  -5    3.21    1.36
   1 -10   4    1.02    1.14
  -1  10  -4    2.19    1.23
   2 -10   3    9.10    1.56
   3 -10   2    3.89    1.26
   4 -10   1    1.85    1.02
   5 -10   0    2.87    1.07
   6 -10  -1    1.34    0.99
   8   9 -12   -1.05    1.96
   7   9 -11    1.77    1.85
   7   9 -11    1.45    1.28
   6   9 -10    4.04    1.40
   5   9  -9   -0.33    1.22
   4   9  -8    9.55    1.57
   3   9  -7   12.41    1.71
   2   9  -6    4.43    1.42
   0  -9   4    5.00    1.08
   0   9  -4    4.98    1.28
   1  -9   3   17.20    1.71
  -1   9  -3   15.10    1.75
   2  -9   2    2.94    1.07
   3  -9   1    2.31    0.94
   4  -9   0    5.94    1.16
   5  -9  -1    1.64    0.86
   6  -9  -2    2.31    0.97
   7  -9  -3    0.12    0.82
   9   8 -12   -2.32    1.93
   8   8 -11    0.80    1.83
   8   8 -11    0.20    1.16
   7   8 -10    3.07    1.24
   7   8 -10    3.12    1.70
   6   8  -9    1.85    1.17
   6   8  -9    3.07    1.48
   5   8  -8   13.49    1.63
   4   8  -7    4.96    1.36
   3   8  -6   10.97    1.50
   1   8  -4   12.77    1.52
   0  -8   3   21.00    1.54
   0   8  -3   19.20    1.77
   1  -8   2   14.46    1.44
  -1   8  -2   18.21    1.69
   2  -8   1    2.70    0.86
   3  -8   0    5.75    1.04
   4  -8  -1    7.18    1.16
   5  -8  -2    8.14    1.23
   6  -8  -3    1.63    0.84
   7  -8  -4    1.74    0.88
   8  -8  -5   -0.28    0.86
   9   7 -11    0.77    1.14
   9   7 -11    1.44    1.97
   8   7 -10    5.42    1.93
   8   7 -10    4.27    1.29
   7   7  -9    2.40    1.16
   7   7  -9    0.75    1.53
   6   7  -8    6.41    1.67
   6   7  -8   11.44    1.42
   5   7  -7    2.89    1.16
   5   7  -7    0.14    1.11
   4   7  -6   16.39    1.63
   3   7  -5    0.60    0.88
   2   7  -4   21.61    1.70
   1   7  -3   20.06    1.66
   0  -7   2   28.36    1.73
   0   7  -2   30.92    1.97
   1  -7   1   13.33    1.26
  -1   7  -1   15.51    1.42
   2  -7   0   20.68    1.55
   3  -7  -1    5.77    0.99
   4  -7  -2    4.10    0.93
   5  -7  -3    1.30    0.75
   6  -7  -4    5.05    1.07
   7  -7  -5    0.15    0.75
   8  -7  -6    1.63    0.99
   9  -7  -7    0.07    1.07
  10   6 -11    1.82    2.16
   9   6 -10    2.60    1.13
   9   6 -10    3.84    1.95
   8   6  -9    0.52    1.60
   8   6  -9    1.83    1.03
   7   6  -8    8.13    1.72
   7   6  -8   11.05    1.30
   6   6  -7    4.81    1.10
   6   6  -7    4.54    1.41
   5   6  -6   24.32    1.77
   5   6  -6   17.64    2.04
   4   6  -5    0.10    0.83
   3   6  -4   18.68    1.52
   2   6  -3    9.90    1.14
  -1  -6   2   32.41    1.72
   1   6  -2   36.48    2.02
   0  -6   1   19.66    1.23
   0   6  -1   18.25    1.39
   1  -6   0   13.09    1.07
  -1   6   0   11.24    1.16
   2  -6  -1   12.16    1.15
  -2   6   1   12.54    1.18
   3  -6  -2   30.81    1.88
   4  -6  -3   -0.67    0.61
   5  -6  -4   16.37    1.42
   6  -6  -5   -1.05    0.68
   7  -6  -6    8.52    1.30
   8  -6  -7   -0.57    0.92
   9  -6  -8    0.72    1.21
  11   5 -11    0.76    2.10
  10   5 -10    2.17    1.92
   9   5  -9    2.56    1.00
   9   5  -9    1.52    1.67
   8   5  -8   11.70    1.39
   8   5  -8   12.74    1.90
   7   5  -7    3.27    1.32
   7   5  -7    1.13    0.83
   6   5  -6   23.16    2.19
   6   5  -6   27.17    1.83
   5   5  -5   22.25    1.56
   5   5  -5   19.13    1.80
   4   5  -4   39.89    2.17
   4   5  -4   37.47    2.39
   3   5  -3    1.12    0.64
   2   5  -2   39.97    2.15
  -1  -5   1   49.92    2.26
   1   5  -1   48.16    2.47
   0  -5   0   33.35    1.67
   0   5   0   32.19    1.83
   1  -5  -1    8.19    0.89
  -1   5   1    8.37    0.91
   2  -5  -2   20.95    1.36
   3  -5  -3   31.24    1.83
   4  -5  -4   10.28    1.20
   5  -5  -5    1.78    0.82
   6  -5  -6   10.69    1.34
   7  -5  -7    0.44    0.87
   8  -5  -8    1.70    1.09
   9  -5  -9    0.77    1.22
  11   4 -10    5.34    2.11
  10   4  -9    2.16    1.73
   9   4  -8    8.67    1.81
   9   4  -8    7.49    1.22
   8   4  -7    5.09    1.41
   8   4  -7    3.53    0.92
   7   4  -6   10.99    1.20
   7   4  -6   11.91    1.67
   6   4  -5   -0.21    1.08
   6   4  -5    0.84    0.72
   5   4  -4   48.15    2.50
   5   4  -4   48.80    2.87
   4   4  -3   40.31    2.08
   4   4  -3   37.54    2.26
   3   4  -2   51.58    2.55
   2   4  -1   43.92    2.20
  -1  -4   0   55.51    2.44
   1   4   0   52.90    2.63
   0  -4  -1    8.83    0.73
   0   4   1    8.81    0.87
   1  -4  -2   23.05    1.34
  -1   4   2   24.07    1.43
   2  -4  -3   46.63    2.23
  -2   4   3   41.78    2.27
   3  -4  -4   18.42    1.33
   4  -4  -5    1.13    0.72
   5  -4  -6    8.33    1.19
   6  -4  -7    3.77    1.03
   7  -4  -8   12.34    1.56
   8  -4  -9    1.35    1.22
   9  -4 -10   -0.36    1.31
  11   3  -9    2.11    1.66
  10   3  -8    5.09    1.73
   9   3  -7   12.16    1.83
   8   3  -6    7.88    1.48
   7   3  -5   -0.34    1.04
   6   3  -4   26.02    1.61
   6   3  -4   25.62    2.02
   5   3  -3    2.60    0.85
   5   3  -3    3.58    0.64
   4   3  -2   56.99    2.79
   4   3  -2   60.61    3.13
   3   3  -1   62.47    2.92
  -2  -3   0   36.42    1.65
   2   3   0   35.59    1.82
  -1  -3  -1    4.96    0.50
   1   3   1    3.86    0.57
   0  -3  -2   51.75    2.35
   0   3   2   51.56    2.49
   1  -3  -3   77.58    3.44
  -1   3   3   76.40    3.56
   2  -3  -4   52.43    2.46
  -2   3   4   48.47    2.47
   3  -3  -5   10.88    1.12
  -3   3   5    9.76    1.03
   4  -3  -6   26.81    1.75
   5  -3  -7   13.44    1.48
   6  -3  -8   26.72    2.01
   7  -3  -9    4.39    1.29
   8  -3 -10    5.22    1.49
   9  -3 -11   -1.19    1.29
  12   2  -9    0.96    1.82
  11   2  -8    2.18    1.56
  10   2  -7   12.23    1.73
   9   2  -6    4.58    1.34
   8   2  -5    2.16    1.22
   7   2  -4   19.51    1.90
   6   2  -3   10.43    1.28
   5   2  -2   55.38    3.00
   5   2  -2   53.41    2.57
   4   2  -1   55.59    2.60
   4   2  -1   55.72    2.95
   3   2   0   38.48    1.88
   2   2   1    7.09    0.65
  -1  -2  -2   33.83    1.58
   1   2   2   32.76    1.68
   0  -2  -3   74.32    3.25
   0   2   3   74.03    3.39
   1  -2  -4    1.45    0.45
  -1   2   4    1.58    0.51
   2  -2  -5    2.78    0.60
  -2   2   5    2.45    0.63
   3  -2  -6   38.98    2.05
  -3   2   6   37.86    2.05
   4  -2  -7   16.61    1.41
  -4   2   7   15.93    1.31
   5  -2  -8    5.61    1.15
   6  -2  -9    6.07    1.25
   7  -2 -10   14.01    1.77
   8  -2 -11   -0.29    1.20
   9  -2 -12    0.91    1.40
  12   1  -8    1.21    1.60
  11   1  -7    9.13    1.63
  10   1  -6    1.07    1.25
   9   1  -5   -0.37    1.07
   8   1  -4    8.24    1.39
   7   1  -3   19.76    1.77
   6   1  -2   35.05    2.23
   5   1  -1   65.43    3.44
   4   1   0   60.90    3.16
   3   1   1    3.73    0.52
   3   1   1    3.44    0.47
   2   1   2   32.57    1.62
   1   1   3   82.36    3.70
   0  -1  -4    0.47    0.34
   0   1   4    0.84    0.42
   1  -1  -5    3.66    0.58
  -1   1   5    3.39    0.60
   2  -1  -6   10.46    0.88
  -2   1   6    9.96    0.94
   3  -1  -7   93.76    4.15
  -3   1   7   90.26    4.24
   4  -1  -8   12.51    1.27
  -4   1   8   13.45    1.25
   5  -1  -9    5.56    1.12
  -5   1   9    3.77    0.93
   6  -1 -10    5.17    1.21
   7  -1 -11    2.36    1.22
   7  -1 -11    1.21    1.63
   8  -1 -12    4.13    1.45
  12   0  -7    5.75    1.59
  11   0  -6    0.08    1.30
  10   0  -5    0.26    1.14
   9   0  -4    4.48    1.24
   8   0  -3   18.33    1.81
   7   0  -2   18.94    1.66
   6   0  -1   15.18    1.38
   5   0   0   27.95    1.75
   4   0   1    7.67    0.84
   3   0   2   47.41    2.20
   3   0   2   47.13    2.46
   2   0   3   68.81    3.55
   2   0   3   74.86    3.26
   1   0   4    0.24    0.38
   0   0   5   -0.23    0.38
  -1   0   6    9.97    0.88
   2   0  -7   89.05    3.92
  -2   0   7   87.13    4.08
   3   0  -8    4.69    0.80
  -3   0   8    4.64    0.86
   4   0  -9    1.36    0.86
   4   0  -9    1.75    1.04
  -4   0   9    3.14    0.89
   5   0 -10    3.75    1.42
   5   0 -10    8.94    1.26
  -5   0  10    9.88    1.22
   6   0 -11   -0.21    1.39
   6   0 -11    1.38    1.07
  -6   0  11    0.39    0.89
   7   0 -12    3.67    1.74
  -7   0  12    1.84    1.06
   8   0 -13    7.02    2.07
   9   0 -14    1.03    2.11
  12  -1  -6    1.33    1.47
  11  -1  -5    1.36    1.24
  10  -1  -4   -0.93    1.11
   9  -1  -3   10.78    1.50
   8  -1  -2    7.77    1.26
   6  -1   0    9.51    1.09
   5  -1   1    5.90    0.80
   4  -1   2   20.73    1.36
   3  -1   3   74.35    3.76
   2  -1   4    2.19    0.46
   2  -1   4    0.83    0.49
   1  -1   5    2.37    0.50
   0  -1   6   11.28    0.94
  -1  -1   7  114.96    5.21
  -2  -1   8    4.75    0.82
  -3  -1   9    6.95    0.97
   4   1 -10    9.51    1.48
  -4  -1  10   11.40    1.24
   5   1 -11    4.00    1.44
  -5  -1  11    5.54    1.04
   6   1 -12    7.92    1.77
  -6  -1  12    7.15    1.23
   7   1 -13    4.52    1.97
  -7  -1  13    4.26    1.25
   8   1 -14    2.78    2.14
  -8  -1  14    2.58    1.29
   9   1 -15   -1.32    2.21
  12  -2  -5    0.10    1.33
  11  -2  -4    1.49    1.29
  10  -2  -3    7.98    1.46
   9  -2  -2    4.26    1.17
   8  -2  -1   -0.55    0.82
   7  -2   0   13.16    1.40
   6  -2   1   10.03    1.12
   5  -2   2   19.53    1.43
   4  -2   3   37.07    2.13
   3  -2   4   45.22    2.50
   2  -2   5    2.63    0.54
   1  -2   6   10.58    0.92
   0  -2   7   93.31    4.31
  -1  -2   8    3.41    0.77
  -2  -2   9   -0.48    0.63
  -3  -2  10    9.86    1.15
  -4  -2  11   14.02    1.39
   5   2 -12   10.31    1.72
  -5  -2  12    6.97    1.20
   6   2 -13    3.49    1.74
  -6  -2  13    3.23    1.09
   7   2 -14   10.71    2.33
  -7  -2  14    7.93    1.42
   8   2 -15    1.94    2.35
  -8  -2  15   -0.75    1.19
  12  -3  -4    0.30    1.42
  11  -3  -3    4.53    1.47
  10  -3  -2    2.09    1.21
   9  -3  -1    0.27    0.99
   8  -3   0    3.72    1.03
   7  -3   1    5.40    1.04
   6  -3   2   27.84    1.97
   5  -3   3   25.77    1.77
   4  -3   4   16.02    1.31
   3  -3   5    7.69    1.04
   2  -3   6   35.74    1.91
   1  -3   7   89.43    4.17
   0  -3   8    3.48    0.76
  -1  -3   9    3.90    0.82
  -2  -3  10   10.52    1.17
  -3  -3  11    3.51    0.87
  -4  -3  12    7.27    1.12
  -5  -3  13   -0.03    0.81
  -6  -3  14    4.85    1.18
  -7  -3  15    1.62    1.18
  -8  -3  16    2.34    1.34
  11  -4  -2    0.76    1.28
  10  -4  -1   -0.54    1.10
   9  -4   0    2.96    1.19
   8  -4   1    5.63    1.21
   7  -4   2    4.23    1.05
   6  -4   3   -0.02    0.74
   5  -4   4    8.10    1.16
   4  -4   5    0.97    0.69
   3  -4   6   20.83    1.71
   2  -4   7   15.68    1.23
   1  -4   8   11.64    1.14
   0  -4   9    2.23    0.75
  -1  -4  10    8.77    1.09
  -2  -4  11   11.98    1.28
  -3  -4  12    6.74    1.09
  -4  -4  13   -0.09    0.78
  -5  -4  14    8.84    1.24
  -6  -4  15   -0.26    0.93
  -7  -4  16    1.06    1.19
  11  -5  -1   -0.59    1.37
  10  -5   0    3.10    1.42
   9  -5   1    1.39    1.19
   8  -5   2    8.50    1.43
   7  -5   3    0.95    0.98
   6  -5   4   15.05    1.72
   5  -5   5    2.03    0.88
   4  -5   6    7.46    1.19
   2  -5   8    5.61    0.90
   1  -5   9    3.19    0.80
   0  -5  10    5.38    0.94
  -1  -5  11    3.72    0.92
  -2  -5  12    7.47    1.09
  -3  -5  13    0.54    0.81
  -4  -5  14    7.12    1.17
  -5  -5  15    1.28    0.92
  -6  -5  16    1.20    1.03
  10  -6   1   -0.72    1.34
   9  -6   2    3.05    1.42
   8  -6   3    2.41    1.24
   7  -6   4    5.04    1.36
   6  -6   5   -2.04    0.81
   5  -6   6    8.51    1.37
   4  -6   7    3.13    1.00
   2  -6   9    5.71    0.90
   1  -6  10    3.33    0.84
   0  -6  11    0.04    0.70
  -1  -6  12    4.73    1.01
  -2  -6  13    2.33    0.90
  -3  -6  14    3.39    0.98
  -4  -6  15    0.51    0.87
  -5  -6  16    2.08    1.05
   9  -7   3   -1.08    1.39
   8  -7   4    1.44    1.37
   7  -7   5    0.43    1.17
   6  -7   6    9.97    1.63
   5  -7   7    0.11    0.96
   4  -7   8   10.11    1.47
   2  -7  10    7.81    1.09
   1  -7  11    1.57    0.81
   0  -7  12    0.86    0.81
  -1  -7  13    4.10    1.05
  -2  -7  14    4.62    1.09
  -3  -7  15    0.71    0.92
  -4  -7  16    0.82    1.00
   8  -8   5   -0.35    1.46
   7  -8   6    2.16    1.45
   6  -8   7    0.75    1.15
   5  -8   8    1.51    1.18
   4  -8   9    0.87    0.96
   2  -8  11    0.22    0.78
   1  -8  12    1.31    0.89
   0  -8  13    3.41    1.03
  -1  -8  14    2.20    0.98
  -2  -8  15    0.77    0.98
  -3  -8  16    0.23    1.02
   6  -9   8    0.16    1.27
   5  -9   9    0.65    1.19
   4  -9  10    1.39    1.11
   3  -9  11    1.79    1.19
   2  -9  12   -0.26    0.87
   1  -9  13    2.59    1.06
   0  -9  14    0.05    0.97
   2  12  -8    4.88    1.96
   1  12  -7    1.24    1.62
   0  12  -6    2.54    1.65
   1 -12   5    0.47    1.54
  -1  12  -5   -0.04    1.32
   2 -12   4    1.55    1.64
   5  11 -10    1.22    1.56
   4  11  -9    0.60    1.56
   3  11  -8    5.60    1.70
   2  11  -7   -0.37    1.49
   1  11  -6    2.72    1.57
   0  11  -5   -2.14    1.38
   1 -11   4    6.47    1.63
  -1  11  -4    9.96    1.74
   2 -11   3    0.93    1.38
   3 -11   2    0.55    1.36
   4 -11   1    1.89    1.28
   5 -11   0    0.24    1.15
   6  10 -10    0.65    1.47
   5  10  -9    1.44    1.37
   4  10  -8    4.02    1.50
   3  10  -7    4.36    1.56
   2  10  -6    4.77    1.58
   1  10  -5    0.25    1.32
   0 -10   4   10.89    1.48
   0  10  -4   11.58    1.68
   1 -10   3   -0.76    1.07
  -1  10  -3    0.96    1.21
   2 -10   2    4.06    1.33
   3 -10   1    2.27    1.12
   4 -10   0    1.98    1.09
   5 -10  -1    1.64    1.08
   6 -10  -2   -0.97    0.86
   8   9 -11    0.57    1.84
   8   9 -11    1.95    1.38
   7   9 -10    4.64    1.78
   7   9 -10    1.22    1.39
   6   9  -9    2.57    1.26
   6   9  -9    2.87    1.58
   5   9  -8    3.62    1.35
   4   9  -7    9.61    1.65
   3   9  -6    3.78    1.30
   2   9  -5    4.88    1.30
   1   9  -4   16.12    1.85
   0  -9   3    3.21    0.99
   0   9  -3    4.13    1.22
   1  -9   2    1.12    0.92
  -1   9  -2    2.39    1.02
   2  -9   1    3.00    1.01
   3  -9   0    5.05    1.17
   4  -9  -1    5.03    1.13
   5  -9  -2    1.86    0.92
   6  -9  -3    0.85    0.90
   7  -9  -4   -0.06    0.90
   9   8 -11    1.32    1.31
   9   8 -11    1.98    1.99
   8   8 -10    0.89    1.70
   8   8 -10    3.96    1.40
   7   8  -9    1.34    1.59
   7   8  -9    2.67    1.24
   6   8  -8    2.13    1.18
   6   8  -8    1.65    1.32
   5   8  -7   13.05    1.66
   4   8  -6    0.63    1.04
   3   8  -5    7.87    1.31
   2   8  -4   11.72    1.42
  -1  -8   3   12.17    1.18
   1   8  -3   13.95    1.51
   0  -8   2    5.89    0.97
   1  -8   1    7.75    1.12
  -1   8  -1    8.89    1.21
   2  -8   0    9.14    1.22
   3  -8  -1    2.65    0.92
   4  -8  -2    0.12    0.77
   5  -8  -3    3.72    1.00
   6  -8  -4   -0.44    0.78
   7  -8  -5    1.21    0.90
   8  -8  -6    0.15    1.00
  10   7 -11    0.87    2.07
   9   7 -10    1.90    1.24
   9   7 -10    3.74    1.95
   8   7  -9    3.78    1.79
   8   7  -9    2.23    1.21
   7   7  -8    0.08    1.42
   7   7  -8    1.70    1.09
   6   7  -7   10.29    1.63
   5   7  -6   -0.82    0.99
   5   7  -6    0.13    0.95
   4   7  -5    9.38    1.29
   3   7  -4    5.42    1.04
   2   7  -3   22.20    1.79
  -1  -7   2    9.64    1.01
   1   7  -2    9.69    1.17
   0  -7   1    1.81    0.71
   0   7  -1    1.84    0.83
   1  -7   0   12.14    1.25
  -1   7   0   10.40    1.22
   2  -7  -1   22.05    1.59
  -2   7   1   20.16    1.64
   3  -7  -2    1.32    0.78
   4  -7  -3   15.49    1.62
   5  -7  -4   -0.23    0.77
   6  -7  -5    6.98    1.20
   7  -7  -6    0.01    0.89
   8  -7  -7   -0.29    0.93
  10   6 -10    2.27    1.18
  10   6 -10    2.66    1.99
   9   6  -9    3.44    1.83
   9   6  -9    3.79    1.18
   8   6  -8    0.34    1.56
   8   6  -8    1.20    0.98
   7   6  -7   12.59    1.89
   7   6  -7   20.83    1.75
   6   6  -6   15.44    1.49
   6   6  -6   10.64    1.59
   5   6  -5   21.07    1.68
   4   6  -4    2.93    0.92
   3   6  -3   30.36    1.92
   2   6  -2   19.56    1.51
  -1  -6   1   11.28    0.95
   1   6  -1   12.13    1.16
   0  -6   0   10.90    1.04
   0   6   0   10.67    1.12
   1  -6  -1   10.26    1.08
  -1   6   1   10.55    1.12
   2  -6  -2   28.06    1.76
  -2   6   2   27.44    1.83
   3  -6  -3    5.89    1.01
   4  -6  -4    1.88    0.81
   5  -6  -5    9.84    1.32
   6  -6  -6   -0.19    0.82
   7  -6  -7    2.29    1.00
   8  -6  -8   -1.37    0.94
  11   5 -10    3.24    2.00
  10   5  -9    4.18    1.93
   9   5  -8    2.30    1.69
   9   5  -8    1.90    1.08
   8   5  -7    7.92    1.17
   8   5  -7    9.04    1.73
   7   5  -6    0.03    1.22
   7   5  -6    0.03    0.83
   6   5  -5   23.21    2.14
   6   5  -5   22.98    1.70
   5   5  -4    1.33    0.99
   5   5  -4    3.29    0.83
   4   5  -3   29.60    1.80
   3   5  -2   16.29    1.25
   2   5  -1   10.00    1.01
  -1  -5   0    8.06    0.78
   1   5   0    7.00    0.86
   0  -5  -1   10.70    0.92
   0   5   1   12.01    1.09
   1  -5  -2   53.07    2.57
  -1   5   2   51.99    2.69
   2  -5  -3   13.71    1.17
  -2   5   3   12.58    1.25
   3  -5  -4    3.91    0.88
   4  -5  -5    8.10    1.16
   5  -5  -6    8.13    1.30
   6  -5  -7   13.99    1.63
   7  -5  -8   -1.65    0.85
   8  -5  -9    4.03    1.41
   9  -5 -10   -0.30    1.38
  11   4  -9    0.39    1.83
  10   4  -8    4.00    1.68
   9   4  -7    8.66    1.84
   8   4  -6    0.59    0.82
   8   4  -6    0.11    1.28
   7   4  -5    7.99    1.06
   7   4  -5    9.12    1.47
   6   4  -4    1.58    1.04
   6   4  -4    1.62    0.74
   5   4  -3   34.22    2.12
   5   4  -3   29.60    1.82
   4   4  -2   13.22    1.07
   3   4  -1    7.23    0.81
  -2  -4   0    4.40    0.52
   2   4   0    4.49    0.66
  -1  -4  -1   20.83    1.13
   1   4   1   20.53    1.32
   0  -4  -2   77.31    3.48
   0   4   2   78.87    3.67
   1  -4  -3   36.92    1.91
  -1   4   3   36.36    2.00
   2  -4  -4   12.61    1.10
  -2   4   4   12.35    1.17
   3  -4  -5   25.31    1.70
   4  -4  -6   16.29    1.48
   5  -4  -7   35.01    2.26
   6  -4  -8    1.75    1.03
   7  -4  -9   15.99    1.83
   8  -4 -10   -0.08    1.21
   9  -4 -11    2.10    1.57
  12   3  -9    2.15    1.75
  11   3  -8    5.13    1.76
  10   3  -7    3.47    1.57
   9   3  -6    1.77    1.28
   8   3  -5    7.26    1.40
   7   3  -4    7.95    1.38
   6   3  -3   37.33    2.39
   6   3  -3   33.66    1.94
   5   3  -2   18.80    1.23
   4   3  -1    6.11    0.85
   4   3  -1    7.53    0.77
   3   3   0    1.28    0.47
  -2  -3  -1   11.89    0.80
   2   3   1   13.81    0.96
  -1  -3  -2   74.32    3.20
   1   3   2   70.58    3.38
   0  -3  -3    0.58    0.39
   0   3   3    1.15    0.51
   1  -3  -4    0.86    0.48
  -1   3   4    1.38    0.57
   2  -3  -5   36.73    1.94
  -2   3   5   35.24    1.98
   3  -3  -6   27.11    1.67
  -3   3   6   23.10    1.62
   4  -3  -7   10.58    1.35
  -4   3   7   10.69    1.20
   5  -3  -8    0.69    0.89
   6  -3  -9   22.56    1.96
   7  -3 -10    1.48    1.17
   8  -3 -11    1.93    1.31
   9  -3 -12    2.05    1.55
  12   2  -8    5.49    1.78
  11   2  -7    0.55    1.32
  10   2  -6    1.58    1.31
   9   2  -5    4.93    1.36
   8   2  -4   12.95    1.54
   7   2  -3   20.65    1.88
   6   2  -2   24.89    1.88
   5   2  -1   10.91    0.91
   5   2  -1   12.63    1.26
   4   2   0    3.61    0.69
   4   2   0    4.26    0.59
   3   2   1   12.69    0.91
   2   2   2  106.14    4.74
  -1  -2  -3    1.59    0.42
   1   2   3    1.11    0.47
   0  -2  -4   -0.22    0.35
   0   2   4    0.15    0.46
   1  -2  -5    9.66    0.86
  -1   2   5   12.38    1.05
   2  -2  -6  128.49    5.54
  -2   2   6  124.56    5.71
   3  -2  -7   14.01    1.34
  -3   2   7   13.79    1.30
   4  -2  -8    6.53    1.10
  -4   2   8    7.58    1.09
   5  -2  -9    8.65    1.31
  -5   2   9    7.88    1.16
   6  -2 -10   16.96    1.87
   7  -2 -11    6.50    1.55
   8  -2 -12    7.01    1.59
   9  -2 -13    2.92    1.65
  12   1  -7    0.13    1.40
  11   1  -6    1.06    1.42
  10   1  -5    0.30    1.19
   9   1  -4   15.58    1.73
   8   1  -3    9.46    1.41
   7   1  -2    7.01    1.17
   6   1  -1   10.28    1.17
   5   1   0    7.16    0.89
   4   1   1   20.43    1.37
   4   1   1   21.02    1.18
   3   1   2   69.36    3.17
   3   1   2   69.06    3.48
   2   1   3    0.86    0.44
   1   1   4    2.24    0.53
   0  -1  -5    9.99    0.79
   0   1   5    9.44    0.90
   1  -1  -6  106.04    4.65
  -1   1   6  106.23    4.84
   2  -1  -7    4.27    0.77
  -2   1   7    3.85    0.81
   3  -1  -8    5.19    0.92
  -3   1   8    6.30    0.98
   4  -1  -9   14.21    1.40
  -4   1   9   12.47    1.36
   5  -1 -10    6.34    1.22
  -5   1  10    7.27    1.17
   6  -1 -11    7.43    1.40
  -6   1  11    7.67    1.28
   7  -1 -12    7.40    1.56
   8  -1 -13    4.27    1.56
  12   0  -6    0.66    1.42
  11   0  -5   -0.38    1.21
  10   0  -4    7.39    1.43
   9   0  -3    2.29    1.12
   8   0  -2    2.85    1.06
   7   0  -1    0.54    0.83
   6   0   0    7.37    0.98
   5   0   1    8.61    0.94
   4   0   2   71.69    3.67
   3   0   3    0.39    0.37
   3   0   3    1.10    0.43
   2   0   4    0.04    0.44
   2   0   4   -1.22    0.40
   1   0   5    9.48    0.86
   0   0   6  153.77    6.81
  -1   0   7    1.47    0.59
  -2   0   8   -0.19    0.60
   3   0  -9    5.39    0.95
  -3   0   9    6.61    1.03
   4   0 -10   49.38    2.58
   4   0 -10   45.15    2.96
  -4   0  10   43.77    2.57
   5   0 -11   13.81    1.51
  -5   0  11   12.22    1.43
   6   0 -12    5.97    1.29
   6   0 -12    5.01    1.66
  -6   0  12    5.47    1.20
   7   0 -13    2.20    1.27
   7   0 -13    2.38    1.81
   8   0 -14    1.51    2.12
  -8   0  14    1.06    1.26
  12  -1  -5    0.83    1.38
  11  -1  -4    4.92    1.41
  10  -1  -3    1.08    1.21
   9  -1  -2   -0.55    0.96
   8  -1  -1    5.59    1.15
   7  -1   0    8.76    1.17
   6  -1   1    8.21    1.05
   5  -1   2   44.86    2.54
   4  -1   3   31.93    1.89
   3  -1   4    1.28    0.48
   3  -1   4    0.90    0.51
   2  -1   5   10.43    0.90
   1  -1   6  105.27    4.77
   0  -1   7    0.80    0.57
  -1  -1   8    9.85    1.11
  -2  -1   9    4.26    0.94
  -3  -1  10   75.22    3.78
  -4  -1  11   14.97    1.52
  -5  -1  12    5.08    1.18
   6   1 -13    8.21    1.99
  -6  -1  13    8.23    1.42
  -7  -1  14    1.51    1.26
  -8  -1  15    1.29    1.34
  12  -2  -4    1.78    1.50
  11  -2  -3    0.22    1.22
  10  -2  -2    0.24    1.12
   9  -2  -1    0.67    0.99
   8  -2   0    6.36    1.13
   7  -2   1   16.26    1.62
   6  -2   2   25.10    1.83
   5  -2   3   12.44    1.25
   4  -2   4   10.88    1.08
   3  -2   5   36.01    1.87
   3  -2   5   34.92    2.13
   2  -2   6  126.31    5.66
   1  -2   7    3.50    0.73
   0  -2   8   -0.30    0.63
  -1  -2   9    2.41    0.81
  -2  -2  10   51.36    2.79
  -3  -2  11   14.55    1.47
  -4  -2  12    7.41    1.27
  -5  -2  13    3.00    1.04
  -6  -2  14    5.80    1.33
  -7  -2  15   -0.15    1.14
  12  -3  -3    1.17    1.49
  11  -3  -2   -0.86    1.15
  10  -3  -1    1.65    1.20
   9  -3   0    5.89    1.30
   8  -3   1    1.70    0.99
   7  -3   2    0.51    0.81
   6  -3   3    5.12    1.03
   5  -3   4    3.34    0.82
   4  -3   5   20.97    1.63
   3  -3   6   24.86    1.49
   3  -3   6   23.25    1.79
   2  -3   7   11.03    1.10
   1  -3   8    6.25    0.94
   0  -3   9    5.29    0.96
  -1  -3  10   75.22    3.78
  -2  -3  11   15.51    1.48
  -3  -3  12    0.38    0.84
  -4  -3  13    3.27    1.04
  -5  -3  14    4.72    1.22
  -6  -3  15    2.73    1.18
  -7  -3  16   -0.17    1.25
  11  -4  -1    1.64    1.41
  10  -4   0    2.34    1.26
   9  -4   1    5.01    1.31
   8  -4   2   -1.15    0.95
   7  -4   3   13.01    1.60
   6  -4   4    1.23    0.94
   5  -4   5    8.31    1.20
   4  -4   6   14.43    1.50
   2  -4   8    5.35    0.92
   1  -4   9   10.00    1.20
   0  -4  10   46.77    2.63
  -1  -4  11   12.26    1.33
  -2  -4  12    5.89    1.11
  -3  -4  13    3.93    1.00
  -4  -4  14   11.53    1.42
  -5  -4  15    5.67    1.26
  -6  -4  16    0.14    1.14
  11  -5   0   -0.13    1.43
  10  -5   1    2.32    1.39
   9  -5   2   -0.58    1.17
   8  -5   3    4.81    1.30
   7  -5   4   -0.22    1.00
   6  -5   5   10.56    1.51
   5  -5   6    6.16    1.24
   4  -5   7   27.70    2.10
   2  -5   9    5.49    0.97
   1  -5  10    5.30    1.00
   0  -5  11   11.38    1.30
  -1  -5  12    5.39    1.05
  -2  -5  13    2.01    0.94
  -3  -5  14    2.86    1.02
  -4  -5  15    2.72    1.09
  -5  -5  16   -0.92    1.02
  10  -6   2   -0.66    1.42
   9  -6   3    3.01    1.49
   8  -6   4   -0.31    1.21
   7  -6   5    9.73    1.68
   6  -6   6   -1.67    0.88
   5  -6   7   12.80    1.70
   4  -6   8    2.26    0.95
   2  -6  10   10.13    1.21
   1  -6  11    5.61    1.05
   0  -6  12    3.95    1.04
  -1  -6  13    4.00    1.01
  -2  -6  14    3.79    1.07
  -3  -6  15    2.40    1.04
  -4  -6  16    1.68    1.05
   9  -7   4   -1.51    1.46
   8  -7   5    1.68    1.48
   7  -7   6   -0.95    1.18
   6  -7   7    3.36    1.20
   5  -7   8    0.06    0.95
   4  -7   9   11.19    1.60
   2  -7  11    2.71    0.92
   1  -7  12    3.37    0.99
   0  -7  13    0.69    0.95
  -1  -7  14    2.26    1.03
  -2  -7  15    0.34    0.97
  -3  -7  16    0.40    1.06
   8  -8   6   -0.02    1.51
   7  -8   7    1.71    1.51
   6  -8   8    0.87    1.16
   5  -8   9    1.24    1.15
   4  -8  10    0.29    1.00
   3  -8  11    2.54    1.18
   2  -8  12    3.11    1.03
   1  -8  13    1.56    0.98
   0  -8  14    1.10    1.02
  -1  -8  15   -0.03    0.98
   5  -9  10    0.31    1.20
   4  -9  11    2.51    1.21
   3  -9  12    2.90    1.32
   2  -9  13    0.59    1.02
   2  12  -7    0.40    1.62
   1  12  -6    0.75    1.60
   0  12  -5    6.21    1.90
   1 -12   4    1.60    1.64
  -1  12  -4    0.34    1.43
   2 -12   3   -2.16    1.59
   5  11  -9    0.82    1.37
   4  11  -8    0.31    1.38
   3  11  -7    1.71    1.61
   2  11  -6    0.71    1.64
   1  11  -5   10.36    1.88
   0 -11   4   -0.29    1.22
   0  11  -4    0.83    1.35
   1 -11   3    0.02    1.31
  -1  11  -3    1.58    1.33
   2 -11   2   -1.40    1.25
   3 -11   1    2.74    1.49
   4 -11   0    1.24    1.32
   7  10 -10    1.17    1.45
   6  10  -9    1.97    1.42
   5  10  -8    2.89    1.42
   4  10  -7    1.85    1.52
   3  10  -6    3.35    1.51
   2  10  -5   12.35    1.85
  -1 -10   4    0.97    1.00
   1  10  -4    0.21    1.31
   0 -10   3    2.23    1.07
   0  10  -3    4.14    1.33
   1 -10   2   -0.51    1.10
  -1  10  -2    1.01    1.17
   2 -10   1    7.79    1.47
   3 -10   0    3.08    1.23
   4 -10  -1    0.31    1.08
   5 -10  -2   -0.04    1.01
   6 -10  -3   -0.26    1.00
   8   9 -10    2.07    1.45
   8   9 -10    0.70    1.76
   7   9  -9    0.85    1.23
   7   9  -9    2.38    1.60
   6   9  -8    3.43    1.33
   5   9  -7    0.62    1.33
   4   9  -6   11.18    1.61
   3   9  -5    8.70    1.50
   2   9  -4    4.00    1.21
   1   9  -3    1.32    1.08
   0  -9   2    2.78    1.02
   0   9  -2    4.56    1.24
   1  -9   1    7.59    1.29
  -1   9  -1   10.41    1.41
   2  -9   0    1.11    0.99
  -2   9   0    1.05    0.93
   3  -9  -1    0.36    0.96
   4  -9  -2    4.04    1.16
   5  -9  -3    0.77    0.96
   6  -9  -4    0.57    0.98
   7  -9  -5   -0.32    0.97
   9   8 -10    1.85    1.93
   9   8 -10    0.56    1.35
   8   8  -9    1.77    1.65
   8   8  -9    0.20    1.20
   7   8  -8    4.04    1.25
   7   8  -8    0.87    1.41
   6   8  -7    1.24    1.27
   5   8  -6    9.47    1.43
   4   8  -5    2.96    1.13
   3   8  -4    9.21    1.29
   2   8  -3    1.97    1.04
  -1  -8   2    6.75    1.00
   1   8  -2    7.58    1.20
   0  -8   1   12.98    1.34
   0   8  -1   13.32    1.50
   1  -8   0   11.18    1.31
  -1   8   0   12.58    1.43
   2  -8  -1    1.51    0.81
   3  -8  -2    9.77    1.33
   4  -8  -3    2.45    0.97
   5  -8  -4    5.69    1.20
   6  -8  -5   -0.29    0.85
   7  -8  -6    0.92    1.00
  10   7 -10    0.03    1.29
  10   7 -10    1.46    2.03
   9   7  -9    2.10    1.84
   9   7  -9    0.07    1.25
   8   7  -8    4.63    1.20
   8   7  -8    4.18    1.66
   7   7  -7    1.14    1.13
   7   7  -7    0.63    1.34
   6   7  -6   20.79    1.79
   5   7  -5    0.62    0.93
   4   7  -4   13.74    1.44
   3   7  -3    1.45    0.88
   2   7  -2   17.30    1.58
  -1  -7   1   11.93    1.11
   1   7  -1   10.36    1.24
   0  -7   0    6.75    0.98
   0   7   0    7.02    1.12
   1  -7  -1   21.50    1.57
  -1   7   1   18.72    1.67
   2  -7  -2   10.02    1.26
  -2   7   2    8.62    1.26
   3  -7  -3    4.26    0.98
   4  -7  -4    7.58    1.18
   5  -7  -5   -0.29    0.82
   6  -7  -6    1.46    0.99
   7  -7  -7   -1.24    0.91
   8  -7  -8    0.43    1.15
  10   6  -9    0.13    1.83
  10   6  -9    0.33    1.19
   9   6  -8    3.33    1.68
   9   6  -8    2.49    1.07
   8   6  -7   -0.30    1.04
   8   6  -7    0.37    1.41
   7   6  -6    8.83    1.53
   6   6  -5    5.75    1.12
   5   6  -4   18.16    1.57
   4   6  -3   -0.33    0.70
   3   6  -2   21.76    1.60
  -2  -6   1    8.32    0.80
   2   6  -1   11.40    1.12
  -1  -6   0   10.33    0.99
   1   6   0    9.22    1.10
   0  -6  -1   24.80    1.51
   0   6   1   21.75    1.67
   1  -6  -2   24.90    1.60
  -1   6   2   23.00    1.74
   2  -6  -3    7.92    1.11
  -2   6   3   10.49    1.23
   3  -6  -4    6.50    1.11
   4  -6  -5    4.44    1.03
   5  -6  -6   12.16    1.51
   6  -6  -7    0.30    0.98
   7  -6  -8    2.10    1.18
   8  -6  -9   -1.30    1.19
  11   5  -9    3.27    2.07
  10   5  -8    2.28    1.78
   9   5  -7    0.10    1.55
   9   5  -7   -0.08    0.93
   8   5  -6    6.54    1.19
   8   5  -6    7.38    1.56
   7   5  -5    0.99    0.85
   7   5  -5    0.90    1.19
   6   5  -4   17.59    1.82
   6   5  -4   15.62    1.45
   5   5  -3    1.06    0.70
   4   5  -2   21.78    1.53
   3   5  -1    6.77    0.88
  -2  -5   0   17.15    1.04
   2   5   0   17.42    1.32
  -1  -5  -1   42.99    2.13
   1   5   1   45.94    2.38
   0  -5  -2   47.37    2.37
   0   5   2   48.98    2.56
   1  -5  -3   14.78    1.20
  -1   5   3   14.93    1.35
   2  -5  -4   19.34    1.47
  -2   5   4   18.85    1.54
   3  -5  -5   10.78    1.34
  -3   5   5   11.56    1.33
   4  -5  -6   32.18    2.14
   5  -5  -7    0.02    0.87
   6  -5  -8   14.52    1.75
   7  -5  -9   -1.10    1.10
   8  -5 -10    4.38    1.49
  11   4  -8    0.31    1.63
  10   4  -7   -0.64    1.54
   9   4  -6    7.45    1.64
   8   4  -5    2.48    1.26
   8   4  -5    3.50    0.90
   7   4  -4   13.72    1.30
   7   4  -4   10.52    1.47
   6   4  -3    0.81    0.71
   6   4  -3   -2.27    0.89
   5   4  -2   19.62    1.67
   5   4  -2   20.86    1.46
   4   4  -1    4.82    0.74
   3   4   0   12.18    1.05
  -2  -4  -1   36.54    1.81
   2   4   1   39.18    2.02
  -1  -4  -2   32.17    1.62
   1   4   2   31.98    1.82
   0  -4  -3    5.49    0.74
   0   4   3    6.30    0.85
   1  -4  -4   29.36    1.67
  -1   4   4   28.51    1.77
   2  -4  -5   15.68    1.29
  -2   4   5   13.19    1.33
   3  -4  -6    6.31    1.06
  -3   4   6   10.64    1.15
   4  -4  -7    1.81    0.92
   5  -4  -8   22.94    1.90
   6  -4  -9    1.53    1.20
   7  -4 -10    7.17    1.51
   8  -4 -11    0.07    1.31
  12   3  -8    0.24    1.70
  11   3  -7   -0.08    1.52
  10   3  -6    2.00    1.37
   9   3  -5    9.26    1.51
   8   3  -4    8.06    1.38
   7   3  -3    0.77    1.07
   6   3  -2   20.86    1.47
   6   3  -2   24.03    1.89
   5   3  -1    6.91    0.80
   5   3  -1    4.84    0.92
   4   3   0   12.61    1.03
   3   3   1   58.96    2.83
   2   3   2   39.18    2.04
  -1  -3  -3    1.22    0.44
   1   3   3    1.15    0.53
   0  -3  -4    8.04    0.78
   0   3   4    8.51    0.90
   1  -3  -5   82.95    3.79
  -1   3   5   83.92    3.94
   2  -3  -6   11.62    1.19
  -2   3   6   11.24    1.20
   3  -3  -7   -0.43    0.68
  -3   3   7   -0.59    0.75
   4  -3  -8    8.30    1.25
  -4   3   8    8.85    1.21
   5  -3  -9   21.78    1.85
  -5   3   9   20.03    1.69
   6  -3 -10   10.96    1.66
   7  -3 -11    3.32    1.40
   8  -3 -12    2.77    1.56
  12   2  -7    2.19    1.52
  11   2  -6    0.76    1.38
  10   2  -5    8.25    1.57
   9   2  -4    3.27    1.24
   8   2  -3   -0.74    1.04
   7   2  -2   17.63    1.79
   6   2  -1    8.73    1.15
   5   2   0   15.75    1.14
   5   2   0   17.03    1.41
   4   2   1   36.02    1.86
   3   2   2   40.59    2.07
   2   2   3    1.95    0.53
   1   2   4   10.91    0.98
   0  -2  -5   83.48    3.74
   0   2   5   83.63    3.90
   1  -2  -6    2.64    0.70
  -1   2   6    3.99    0.78
   2  -2  -7   -0.73    0.57
  -2   2   7   -0.02    0.68
   3  -2  -8   12.60    1.31
  -3   2   8   14.16    1.39
   4  -2  -9   16.60    1.61
  -4   2   9   19.00    1.67
   5  -2 -10   11.57    1.51
  -5   2  10   11.18    1.43
   6  -2 -11    2.48    1.22
   7  -2 -12   11.85    1.86
   8  -2 -13    0.54    1.46
  12   1  -6    0.18    1.45
  11   1  -5    5.74    1.47
  10   1  -4    0.37    1.23
   9   1  -3    0.23    1.08
   8   1  -2    5.89    1.22
   7   1  -1    9.67    1.29
   6   1   0    7.60    1.06
   5   1   1   41.07    2.37
   4   1   2   29.36    1.79
   4   1   2   31.33    1.63
   3   1   3    0.86    0.46
   2   1   4    9.12    0.86
   1   1   5  101.62    4.63
   0   1   6    0.97    0.57
   1  -1  -7    7.59    0.89
  -1   1   7    7.64    0.96
   2  -1  -8    2.35    0.75
  -2   1   8    4.41    0.92
   3  -1  -9   81.23    3.74
  -3   1   9   72.08    3.81
   4  -1 -10   16.52    1.65
  -4   1  10   20.03    1.72
   5  -1 -11    6.48    1.36
  -5   1  11    6.80    1.27
   6  -1 -12    7.12    1.54
  -6   1  12    8.45    1.45
   7  -1 -13    3.87    1.52
   8  -1 -14    2.03    1.58
  12   0  -5    2.45    1.51
  11   0  -4    0.10    1.27
  10   0  -3    0.18    1.08
   9   0  -2    1.22    1.05
   8   0  -1   10.44    1.38
   7   0   0    6.17    1.09
   6   0   1   18.64    1.55
   5   0   2   41.18    2.38
   4   0   3    4.89    0.72
   3   0   4    8.06    0.81
   3   0   4    7.32    0.85
   2   0   5   85.14    3.96
   2   0   5   85.67    4.30
   1   0   6    0.48    0.57
   0   0   7   -0.31    0.58
  -1   0   8    1.11    0.70
  -2   0   9  134.05    6.16
  -3   0  10    4.65    1.04
  -4   0  11    2.64    1.02
   5   0 -12   17.76    1.78
  -5   0  12   20.38    1.90
  -6   0  13    4.62    1.33
  -7   0  14    2.43    1.33
  -8   0  15    1.81    1.43
  12  -1  -4   -0.30    1.40
  11  -1  -3    1.68    1.29
  10  -1  -2   -0.42    1.09
   9  -1  -1    5.84    1.23
   8  -1   0    8.53    1.26
   7  -1   1   15.72    1.59
   6  -1   2   18.15    1.57
   5  -1   3   12.06    1.21
   4  -1   4   26.52    1.71
   3  -1   5   84.74    3.89
   3  -1   5   82.33    4.29
   2  -1   6    3.13    0.72
   1  -1   7    7.75    0.94
   0  -1   8    1.31    0.71
  -1  -1   9   88.70    4.30
  -2  -1  10    2.28    0.93
  -3  -1  11    0.60    0.91
  -4  -1  12   11.36    1.48
  -5  -1  13   13.11    1.65
  -6  -1  14    4.89    1.38
  -7  -1  15    1.52    1.32
  12  -2  -3   -0.32    1.38
  11  -2  -2   -0.37    1.27
  10  -2  -1    6.71    1.44
   9  -2   0    0.42    1.01
   8  -2   1    0.23    0.86
   7  -2   2    7.65    1.20
   6  -2   3    8.57    1.13
   5  -2   4   15.52    1.41
   4  -2   5   14.23    1.32
   3  -2   6   11.35    1.10
   3  -2   6   11.13    1.26
   2  -2   7   -0.39    0.59
   1  -2   8    3.79    0.87
   0  -2   9  137.46    6.35
  -1  -2  10    2.48    0.97
  -2  -2  11    1.02    0.96
  -3  -2  12   15.02    1.62
  -4  -2  13   10.28    1.48
  -5  -2  14    4.07    1.26
  -6  -2  15    1.54    1.26
  -7  -2  16    2.88    1.45
  11  -3  -1    1.52    1.42
  10  -3   0    3.38    1.32
   9  -3   1   -0.57    0.99
   8  -3   2    8.32    1.34
   7  -3   3    3.59    1.06
   6  -3   4    6.88    1.16
   5  -3   5    8.47    1.23
   4  -3   6    7.86    1.14
   3  -3   7   -0.59    0.76
   3  -3   7    0.33    0.67
   2  -3   8   11.23    1.22
   1  -3   9   77.27    3.88
   0  -3  10    5.05    1.11
  -1  -3  11    1.43    0.92
  -2  -3  12   13.54    1.55
  -3  -3  13   18.67    1.77
  -4  -3  14    6.52    1.29
  -5  -3  15    1.42    1.14
  -6  -3  16    0.75    1.25
  11  -4   0    1.16    1.49
  10  -4   1    0.21    1.33
   9  -4   2    1.79    1.24
   8  -4   3    2.60    1.21
   7  -4   4    8.74    1.42
   6  -4   5    4.13    1.12
   5  -4   6   28.56    2.15
   4  -4   7    1.32    0.82
   3  -4   8    6.54    1.01
   2  -4   9   13.79    1.40
   1  -4  10   15.96    1.57
   0  -4  11    3.60    1.03
  -1  -4  12   10.14    1.34
  -2  -4  13   10.05    1.40
  -3  -4  14    6.15    1.26
  -4  -4  15    0.80    1.03
  -5  -4  16    1.76    1.14
  10  -5   2    1.32    1.42
   9  -5   3    1.61    1.35
   8  -5   4   10.47    1.68
   7  -5   5   -1.59    1.04
   6  -5   6   13.27    1.68
   5  -5   7   -0.43    0.80
   4  -5   8   19.22    1.83
   2  -5  10    8.86    1.24
   1  -5  11    7.15    1.19
   0  -5  12   13.85    1.54
  -1  -5  13    8.23    1.32
  -2  -5  14    5.25    1.23
  -3  -5  15    1.61    1.05
  -4  -5  16    3.43    1.21
  10  -6   3   -0.21    1.52
   9  -6   4    2.62    1.62
   8  -6   5   -0.54    1.33
   7  -6   6    2.05    1.33
   6  -6   7    0.61    0.98
   5  -6   8   11.63    1.70
   4  -6   9    2.45    1.06
   2  -6  11    3.63    0.98
   1  -6  12    5.78    1.19
   0  -6  13    4.32    1.18
  -1  -6  14    1.31    1.05
  -2  -6  15    1.01    1.07
  -3  -6  16    0.22    1.07
   8  -7   6    0.15    1.41
   7  -7   7    0.21    1.26
   6  -7   8    2.60    1.27
   5  -7   9    1.10    1.14
   4  -7  10    4.60    1.26
   2  -7  12    5.96    1.22
   1  -7  13    2.85    1.10
   0  -7  14    2.92    1.14
  -1  -7  15    1.57    1.15
  -2  -7  16    1.36    1.21
   7  -8   8    1.15    1.44
   6  -8   9    0.59    1.19
   5  -8  10    3.58    1.40
   4  -8  11    2.12    1.22
   3  -8  12    3.06    1.11
   3  -8  12    2.65    1.35
   2  -8  13    0.82    1.05
   1  -8  14    0.49    1.08
   0  -8  15    0.06    1.12
   2  12  -6    5.90    1.93
   1  12  -5   -0.69    1.73
   0  12  -4    0.60    1.57
   1 -12   3   -0.94    1.57
  -1  12  -3    0.97    1.42
   2 -12   2    2.09    1.81
   5  11  -8    1.84    1.44
   4  11  -7   -0.44    1.49
   3  11  -6    3.78    1.68
   2  11  -5    1.96    1.61
   1  11  -4    0.82    1.54
   0 -11   3   -1.65    1.17
   0  11  -3    1.43    1.43
   1 -11   2    5.32    1.58
  -1  11  -2    7.59    1.61
   2 -11   1   -0.21    1.39
   3 -11   0    0.62    1.42
   4 -11  -1   -0.47    1.36
   7  10  -9    1.41    1.37
   6  10  -8    0.65    1.35
   5  10  -7    2.30    1.45
   4  10  -6    3.04    1.46
   3  10  -5    3.81    1.53
   2  10  -4    5.98    1.44
  -1 -10   3   -0.07    1.00
   1  10  -3    1.23    1.26
   0 -10   2    6.27    1.32
   0  10  -2    8.35    1.53
   1 -10   1   -1.00    1.14
  -1  10  -1    0.07    1.15
   2 -10   0    0.25    1.16
   3 -10  -1    2.02    1.22
   4 -10  -2    0.95    1.15
   5 -10  -3    0.90    1.18
   8   9  -9    1.49    1.69
   8   9  -9    2.37    1.34
   7   9  -8    3.71    1.40
   6   9  -7    2.71    1.38
   5   9  -6    0.68    1.25
   4   9  -5   10.87    1.60
   3   9  -4    4.86    1.26
   2   9  -3    3.02    1.20
  -1  -9   2    9.09    1.21
   1   9  -2    9.78    1.50
   0  -9   1    6.21    1.21
   0   9  -1    9.04    1.40
   1  -9   0    1.18    1.03
  -1   9   0    2.11    1.09
   2  -9  -1    4.08    1.18
  -2   9   1    7.94    1.37
   3  -9  -2    4.12    1.20
   4  -9  -3    3.49    1.18
   5  -9  -4   -0.40    0.99
   6  -9  -5   -0.48    1.02
   9   8  -9    1.87    1.33
   9   8  -9    0.75    1.86
   8   8  -8    0.84    1.19
   8   8  -8    0.32    1.58
   7   8  -7    2.85    1.43
   7   8  -7    5.92    1.39
   6   8  -6    0.48    1.11
   5   8  -5   13.67    1.56
   4   8  -4    3.70    1.16
   3   8  -3    5.51    1.20
   2   8  -2    9.71    1.34
  -1  -8   1   10.18    1.18
   1   8  -1   11.69    1.45
   0  -8   0   13.74    1.42
   0   8   0   15.15    1.57
   1  -8  -1    3.23    0.94
  -1   8   1    4.24    1.10
   2  -8  -2    8.67    1.33
  -2   8   2    9.61    1.37
   3  -8  -3    3.75    1.09
   4  -8  -4   -0.59    0.81
   5  -8  -5    2.19    1.07
   6  -8  -6   -1.38    0.88
   7  -8  -7    0.62    1.16
  10   7  -9    4.01    1.97
  10   7  -9    3.16    1.42
   9   7  -8   -0.13    1.11
   9   7  -8    1.86    1.71
   8   7  -7    4.29    1.29
   8   7  -7    4.56    1.58
   7   7  -6    0.14    1.02
   7   7  -6    1.29    1.25
   6   7  -5   16.89    1.66
   5   7  -4    2.74    1.02
   4   7  -3    7.80    1.15
   3   7  -2    4.35    1.02
  -2  -7   1   16.41    1.20
   2   7  -1   16.64    1.53
  -1  -7   0   18.47    1.35
   1   7   0   18.86    1.63
   0  -7  -1   12.34    1.28
   0   7   1   12.80    1.40
   1  -7  -2    7.70    1.13
  -1   7   2    8.00    1.23
   2  -7  -3    6.33    1.12
  -2   7   3    6.33    1.19
   3  -7  -4    6.66    1.21
   4  -7  -5    9.58    1.44
   5  -7  -6    1.12    1.02
   6  -7  -7    2.32    1.18
   7  -7  -8    0.08    1.17
  10   6  -8    2.15    1.78
  10   6  -8   -1.25    1.08
   9   6  -7    2.53    1.07
   9   6  -7   -0.25    1.49
   8   6  -6    1.00    1.02
   8   6  -6    0.03    1.39
   7   6  -5    9.45    1.53
   7   6  -5   10.88    1.32
   6   6  -4    0.45    0.92
   5   6  -3    8.35    1.11
   4   6  -2    2.67    0.83
   3   6  -1   25.35    1.75
  -2  -6   0   23.43    1.35
   2   6   0   21.36    1.66
  -1  -6  -1   21.26    1.37
   1   6   1   22.71    1.68
   0  -6  -2   11.65    1.16
   0   6   2   12.81    1.34
   1  -6  -3   15.93    1.40
  -1   6   3   15.02    1.51
   2  -6  -4   12.74    1.42
  -2   6   4   16.39    1.56
   3  -6  -5   25.09    1.87
  -3   6   5   23.54    1.88
   4  -6  -6    2.89    1.08
   5  -6  -7   11.10    1.58
   6  -6  -8   -1.29    1.03
   7  -6  -9    5.41    1.52
  11   5  -8    2.27    1.90
  10   5  -7    1.89    1.61
   9   5  -6   -0.05    1.39
   9   5  -6    1.68    1.05
   8   5  -5    8.50    1.21
   7   5  -4    2.43    0.89
   7   5  -4    0.94    1.10
   6   5  -3    7.12    1.03
   6   5  -3    4.34    1.09
   5   5  -2    0.75    0.70
   4   5  -1   27.51    1.75
   3   5   0   22.22    1.56
  -2  -5  -1   11.63    0.94
   2   5   1   10.95    1.12
  -1  -5  -2   13.41    1.06
   1   5   2   14.30    1.33
   0  -5  -3   27.82    1.64
   0   5   3   26.77    1.81
   1  -5  -4   20.10    1.47
  -1   5   4   21.64    1.65
   2  -5  -5    4.99    1.00
  -2   5   5    7.02    1.12
   3  -5  -6    0.61    0.87
  -3   5   6    2.08    0.91
   4  -5  -7   22.00    1.85
  -4   5   7   21.38    1.78
   5  -5  -8    0.56    1.03
   6  -5  -9    3.84    1.26
   7  -5 -10   -0.31    1.25
   8  -5 -11    1.84    1.50
  11   4  -7    2.71    1.71
  10   4  -6    3.45    1.58
   9   4  -5    6.35    1.43
   8   4  -4    3.06    1.21
   8   4  -4    2.71    0.92
   7   4  -3    6.61    1.00
   7   4  -3    5.16    1.18
   6   4  -2    2.76    0.78
   6   4  -2    0.23    0.92
   5   4  -1   26.25    1.65
   4   4   0   29.80    1.77
   3   4   1   12.78    1.11
  -2  -4  -2    8.35    0.81
   2   4   2   10.89    1.04
  -1  -4  -3   26.25    1.50
   1   4   3   26.40    1.68
   0  -4  -4   93.06    4.17
   0   4   4   91.98    4.38
   1  -4  -5   11.73    1.15
  -1   4   5   10.29    1.17
   2  -4  -6    5.65    1.00
  -2   4   6    4.18    0.98
   3  -4  -7    7.17    1.12
  -3   4   7    8.59    1.16
   4  -4  -8   12.63    1.57
  -4   4   8   10.29    1.34
   5  -4  -9    8.43    1.47
   6  -4 -10    1.08    1.26
   7  -4 -11    5.39    1.52
   8  -4 -12   -0.17    1.51
  12   3  -7   -0.37    1.53
  11   3  -6    5.41    1.58
  10   3  -5    1.41    1.36
   9   3  -4    0.49    1.22
   8   3  -3    4.54    1.22
   7   3  -2    5.08    1.18
   6   3  -1   23.33    1.86
   6   3  -1   22.66    1.49
   5   3   0   21.85    1.45
   4   3   1   13.07    1.12
   3   3   2    6.20    0.81
   2   3   3   27.80    1.65
  -1  -3  -4   78.33    3.50
   1   3   4   76.70    3.68
   0  -3  -5    4.01    0.71
   0   3   5    4.12    0.81
   1  -3  -6    4.55    0.81
  -1   3   6    5.27    0.92
   2  -3  -7   12.31    1.26
  -2   3   7   11.53    1.27
   3  -3  -8    4.38    1.02
  -3   3   8    3.16    1.01
   4  -3  -9   10.91    1.48
  -4   3   9   12.56    1.41
   5  -3 -10   -0.58    0.99
  -5   3  10    1.31    1.00
   6  -3 -11    8.73    1.61
   7  -3 -12    1.65    1.45
   8  -3 -13    1.39    1.66
  12   2  -6    1.27    1.48
  11   2  -5    1.15    1.40
  10   2  -4    1.97    1.32
   9   2  -3    1.40    1.19
   8   2  -2    4.86    1.17
   7   2  -1   17.26    1.74
   6   2   0   20.39    1.71
   5   2   1   11.30    1.05
   4   2   2   10.19    0.97
   3   2   3   29.09    1.67
   2   2   4  106.73    4.86
   1   2   5    3.08    0.68
   0  -2  -6    0.22    0.49
   0   2   6   -0.29    0.61
   1  -2  -7    3.63    0.79
  -1   2   7    3.33    0.87
   2  -2  -8   52.98    2.71
  -2   2   8   49.68    2.81
   3  -2  -9   16.21    1.60
  -3   2   9   15.63    1.57
   4  -2 -10    7.53    1.30
  -4   2  10   10.27    1.40
   5  -2 -11    2.71    1.23
  -5   2  11    5.16    1.23
   6  -2 -12    8.02    1.69
  -6   2  12   10.33    1.57
   7  -2 -13    3.20    1.54
   8  -2 -14    1.95    1.68
  12   1  -5    1.66    1.49
  11   1  -4    0.60    1.33
  10   1  -3    1.55    1.24
   9   1  -2    6.61    1.34
   8   1  -1    8.35    1.32
   7   1   0   17.59    1.69
   6   1   1   18.05    1.58
   5   1   2   13.53    1.27
   4   1   3   24.53    1.48
   3   1   4   74.69    3.51
   2   1   5    3.40    0.68
   1   1   6    6.12    0.87
   0   1   7    1.37    0.69
  -1   1   8   85.25    4.15
   2  -1  -9    2.31    0.82
  -2   1   9    2.88    0.97
   3  -1 -10    0.72    0.85
  -3   1  10    0.52    0.94
   4  -1 -11   12.62    1.50
  -4   1  11   12.68    1.57
   5  -1 -12   13.38    1.71
  -5   1  12   15.53    1.77
   6  -1 -13    4.62    1.47
  -6   1  13    4.73    1.39
   7  -1 -14    3.99    1.59
  -7   1  14    3.93    1.54
  12   0  -4    0.70    1.45
  11   0  -3    1.27    1.32
  10   0  -2    3.11    1.24
   9   0  -1    7.00    1.33
   8   0   0   10.45    1.39
   7   0   1    8.30    1.17
   6   0   2    9.38    1.13
   5   0   3   25.25    1.76
   4   0   4   90.28    4.09
   4   0   4   86.52    4.51
   3   0   5    3.67    0.70
   3   0   5    4.12    0.75
   2   0   6    0.20    0.62
   2   0   6   -0.57    0.55
   1   0   7    1.27    0.70
   0   0   8   56.96    2.99
  -1   0   9   -0.05    0.83
  -2   0  10   -0.98    0.82
  -3   0  11    0.66    0.94
  -4   0  12   26.09    2.10
  -5   0  13    4.53    1.35
  -6   0  14    2.49    1.35
  -7   0  15   -0.14    1.39
  12  -1  -3    0.41    1.41
  11  -1  -2    4.60    1.50
  10  -1  -1   -0.76    1.11
   9  -1   0    0.20    1.03
   8  -1   1    1.35    0.95
   7  -1   2    7.00    1.15
   6  -1   3   11.83    1.32
   5  -1   4   18.37    1.53
   4  -1   5   10.05    1.14
   3  -1   6    5.77    0.89
   3  -1   6    5.75    0.92
   2  -1   7    4.07    0.86
   1  -1   8   83.44    4.08
   0  -1   9   -0.07    0.81
  -1  -1  10    6.62    1.15
  -2  -1  11    3.08    1.05
  -3  -1  12   22.54    1.96
  -4  -1  13    5.84    1.26
  -5  -1  14    1.83    1.24
  -6  -1  15    4.43    1.46
  12  -2  -2    2.66    1.64
  11  -2  -1    0.01    1.33
  10  -2   0   -1.96    1.09
   9  -2   1    4.00    1.27
   8  -2   2    7.79    1.36
   7  -2   3    4.65    1.07
   6  -2   4   12.64    1.44
   5  -2   5    3.97    0.93
   4  -2   6    4.65    0.96
   3  -2   7   10.19    1.30
   3  -2   7   11.50    1.21
   2  -2   8   50.61    2.76
   1  -2   9    3.08    0.95
   0  -2  10    1.64    0.95
  -1  -2  11    2.10    1.02
  -2  -2  12   45.03    2.80
  -3  -2  13    8.71    1.46
  -4  -2  14    1.09    1.16
  -5  -2  15    3.54    1.34
  -6  -2  16    5.52    1.58
  11  -3   0   -0.11    1.38
  10  -3   1    1.69    1.37
   9  -3   2    4.36    1.39
   8  -3   3    4.78    1.25
   7  -3   4    4.56    1.19
   6  -3   5   21.51    1.94
   5  -3   6    2.36    0.88
   4  -3   7    7.44    1.20
   3  -3   8    4.62    1.15
   3  -3   8    3.54    0.96
   2  -3   9   17.57    1.60
   1  -3  10    0.99    0.90
   0  -3  11    1.93    1.00
  -1  -3  12   25.70    2.11
  -2  -3  13    7.24    1.39
  -3  -3  14    1.36    1.17
  -4  -3  15    4.64    1.39
  -5  -3  16    1.28    1.26
  11  -4   1   -0.16    1.54
  10  -4   2    2.81    1.50
   9  -4   3    4.33    1.48
   8  -4   4   -1.54    1.12
   7  -4   5   11.22    1.73
   6  -4   6    3.09    1.08
   5  -4   7   23.74    2.05
   4  -4   8    9.52    1.39
   3  -4   9    8.18    1.44
   3  -4   9   12.08    1.34
   2  -4  10    6.69    1.14
   1  -4  11   11.94    1.46
   0  -4  12   29.55    2.26
  -1  -4  13    3.70    1.20
  -2  -4  14    1.72    1.18
  -3  -4  15    3.77    1.30
  -4  -4  16    3.48    1.34
  10  -5   3    0.80    1.57
   9  -5   4   -2.27    1.30
   8  -5   5    0.27    1.34
   7  -5   6   -0.28    1.06
   6  -5   7   10.56    1.66
   5  -5   8    0.87    1.05
   4  -5   9    8.64    1.40
   3  -5  10    0.20    0.90
   2  -5  11    3.08    1.08
   1  -5  12    9.48    1.41
   0  -5  13    3.92    1.24
  -1  -5  14    2.26    1.17
  -2  -5  15    2.55    1.20
  -3  -5  16    1.85    1.22
   9  -6   5    0.93    1.58
   8  -6   6   -0.67    1.36
   7  -6   7    2.25    1.35
   6  -6   8    0.36    1.05
   5  -6   9    5.77    1.38
   4  -6  10    1.36    1.01
   3  -6  11    4.14    1.12
   2  -6  12    7.14    1.30
   1  -6  13    3.25    1.17
   0  -6  14    5.05    1.29
  -1  -6  15    3.21    1.26
  -2  -6  16    4.31    1.35
   8  -7   7    0.56    1.57
   7  -7   8   -0.38    1.32
   6  -7   9    3.95    1.43
   5  -7  10    0.69    1.13
   4  -7  11    3.28    1.21
   3  -7  12    0.88    1.05
   3  -7  12    2.68    1.21
   2  -7  13    1.72    1.14
   1  -7  14    1.44    1.16
   0  -7  15    0.32    1.16
   4  -8  12    0.91    1.25
   3  -8  13    0.12    1.13
   3  -8  13    1.23    1.29
   2  12  -5    2.00    1.72
   1  12  -4   -0.67    1.70
   0 -12   3    1.88    1.51
   0  12  -3    5.21    1.82
   1 -12   2    1.64    1.79
   5  11  -7    0.30    1.40
   4  11  -6    0.42    1.45
   3  11  -5    2.40    1.61
   2  11  -4    0.44    1.55
  -1 -11   3    2.84    1.28
   1  11  -3    8.46    1.79
   0 -11   2    0.11    1.27
   0  11  -2   -0.39    1.39
   1 -11   1   -0.78    1.42
  -1  11  -1    1.41    1.39
   2 -11   0    0.45    1.49
   3 -11  -1    1.30    1.51
   7  10  -8    1.26    1.37
   6  10  -7    1.75    1.44
   5  10  -6    2.18    1.39
   4  10  -5    1.57    1.36
   3  10  -4    2.90    1.40
   2  10  -3   10.83    1.75
  -1 -10   2    0.84    1.04
   1  10  -2   -0.99    1.23
   0 -10   1    0.96    1.11
   0  10  -1    1.96    1.26
   1 -10   0    0.12    1.22
  -1  10   0    1.69    1.15
   2 -10  -1    2.28    1.28
  -2  10   1    5.12    1.35
   3 -10  -2   -0.85    1.10
   4 -10  -3   -0.89    1.15
   5 -10  -4   -0.66    1.18
   8   9  -8    2.11    1.32
   7   9  -7    1.90    1.33
   6   9  -6    4.12    1.40
   5   9  -5    1.22    1.23
   4   9  -4    5.04    1.30
   3   9  -3    5.08    1.35
   2   9  -2    1.48    1.15
  -1  -9   1    1.25    0.91
   1   9  -1    1.59    1.14
   0  -9   0   -1.13    0.92
   0   9   0    0.51    1.09
   1  -9  -1    4.70    1.22
  -1   9   1    7.01    1.34
   2  -9  -2    1.40    1.09
  -2   9   2    0.26    1.05
   3  -9  -3   -0.30    1.06
   4  -9  -4    0.48    1.11
   5  -9  -5   -0.22    1.13
   9   8  -8    0.61    1.75
   9   8  -8    2.44    1.31
   8   8  -7    0.97    1.51
   8   8  -7    0.50    1.29
   7   8  -6    2.18    1.24
   6   8  -5    2.46    1.16
   5   8  -4   10.93    1.50
   4   8  -3    7.76    1.33
   3   8  -2    2.09    1.00
  -2  -8   1    1.24    0.71
   2   8  -1    1.40    0.94
  -1  -8   0    1.81    0.82
   1   8   0    3.57    1.05
   0  -8  -1    7.02    1.13
   0   8   1    6.35    1.25
   1  -8  -2    1.09    0.92
  -1   8   2    0.78    1.01
   2  -8  -3   -0.07    0.95
  -2   8   3    1.57    1.03
   3  -8  -4    6.91    1.35
   4  -8  -5    1.59    1.07
   5  -8  -6    1.92    1.18
   6  -8  -7   -0.59    1.16
  10   7  -8    1.85    1.27
  10   7  -8    0.81    1.84
   9   7  -7    0.47    1.61
   9   7  -7    2.02    1.27
   8   7  -6    2.82    1.12
   8   7  -6    1.99    1.44
   7   7  -5    1.82    1.10
   6   7  -4    8.85    1.33
   5   7  -3    3.41    1.02
   4   7  -2    4.62    1.08
   3   7  -1    0.12    0.76
  -2  -7   0    7.48    0.92
   2   7   0    6.93    1.13
  -1  -7  -1    8.48    1.04
   1   7   1    9.06    1.26
   0  -7  -2    6.67    1.07
   0   7   2    8.51    1.24
   1  -7  -3   -0.02    0.79
  -1   7   3    1.22    0.95
   2  -7  -4   13.46    1.52
  -2   7   4   17.48    1.73
   3  -7  -5    3.18    1.04
   4  -7  -6    8.80    1.46
   5  -7  -7   -0.33    1.01
   6  -7  -8    2.39    1.24
   7  -7  -9   -1.00    1.20
  10   6  -7    0.21    1.11
  10   6  -7    0.29    1.65
   9   6  -6    1.96    1.57
   9   6  -6    2.52    1.12
   8   6  -5    1.69    1.06
   8   6  -5    1.12    1.34
   7   6  -4    3.85    1.28
   7   6  -4    8.24    1.24
   6   6  -3    1.44    0.91
   5   6  -2    3.41    0.95
   4   6  -1   -0.69    0.70
  -3  -6   0    3.79    0.71
   3   6   0    3.91    0.91
  -2  -6  -1    7.75    0.94
   2   6   1    7.64    1.11
  -1  -6  -2   12.61    1.17
   1   6   2   14.56    1.44
   0  -6  -3    1.21    0.77
   0   6   3    2.07    0.94
   1  -6  -4    5.06    1.00
  -1   6   4    5.75    1.15
   2  -6  -5    4.49    1.02
  -2   6   5    6.40    1.20
   3  -6  -6   13.30    1.59
  -3   6   6   21.42    1.75
   4  -6  -7    3.10    1.19
   5  -6  -8    3.58    1.21
   6  -6  -9   -1.03    1.11
   7  -6 -10    4.84    1.59
  11   5  -7    2.23    1.73
  10   5  -6    1.86    1.62
  10   5  -6    1.74    1.11
   9   5  -5    1.03    0.98
   9   5  -5    1.04    1.38
   8   5  -4    7.13    1.16
   8   5  -4    3.29    1.30
   7   5  -3    2.95    0.93
   7   5  -3    1.24    1.03
   6   5  -2    2.06    0.84
   5   5  -1    1.64    0.75
   4   5   0    6.10    0.96
   3   5   1    2.77    0.82
  -2  -5  -2   15.40    1.15
   2   5   2   16.53    1.40
  -1  -5  -3   18.20    1.32
   1   5   3   20.83    1.58
   0  -5  -4    9.00    1.07
   0   5   4    9.99    1.25
   1  -5  -5    4.05    0.94
  -1   5   5    4.37    1.02
   2  -5  -6    5.37    1.06
  -2   5   6    7.50    1.16
   3  -5  -7   18.45    1.69
  -3   5   7   19.14    1.72
   4  -5  -8    7.91    1.40
  -4   5   8   10.64    1.40
   5  -5  -9    1.18    1.09
   6  -5 -10    6.61    1.56
   7  -5 -11    0.76    1.42
  11   4  -6    0.38    1.52
  10   4  -5    1.63    1.40
   9   4  -4    3.57    1.35
   8   4  -3    5.54    1.28
   8   4  -3    6.41    1.07
   7   4  -2    3.26    0.87
   6   4  -1    0.38    0.70
   5   4   0    5.76    0.91
   4   4   1    0.88    0.69
   3   4   2   18.90    1.44
  -2  -4  -3   12.93    1.04
   2   4   3   14.32    1.28
  -1  -4  -4    9.88    1.02
   1   4   4   10.68    1.16
   0  -4  -5    2.36    0.73
   0   4   5    3.16    0.86
   1  -4  -6    8.74    1.08
  -1   4   6   10.03    1.23
   2  -4  -7   14.02    1.37
  -2   4   7   13.13    1.40
   3  -4  -8   10.91    1.37
  -3   4   8    9.38    1.28
   4  -4  -9    1.04    0.99
  -4   4   9    0.20    0.92
   5  -4 -10   10.77    1.64
  -5   4  10   10.79    1.48
   6  -4 -11    1.50    1.37
   7  -4 -12    0.73    1.55
  12   3  -6   -0.05    1.44
  11   3  -5    1.75    1.44
  10   3  -4    0.93    1.36
   9   3  -3    2.40    1.21
   8   3  -2    1.48    1.10
   7   3  -1    0.94    0.94
   7   3  -1    0.49    0.68
   6   3   0    2.44    0.77
   5   3   1    3.19    0.76
   4   3   2   17.00    1.32
   3   3   3   18.83    1.39
   2   3   4    9.08    1.00
  -1  -3  -5    5.46    0.79
   1   3   5    3.89    0.82
   0  -3  -6    4.49    0.80
   0   3   6    4.71    0.93
   1  -3  -7   72.22    3.44
  -1   3   7   68.38    3.55
   2  -3  -8   13.45    1.42
  -2   3   8   17.24    1.60
   3  -3  -9    0.36    0.85
  -3   3   9    0.63    0.94
   4  -3 -10    4.75    1.17
  -4   3  10    5.89    1.26
   5  -3 -11    6.03    1.43
  -5   3  11    9.08    1.45
   6  -3 -12    4.88    1.62
   7  -3 -13    2.75    1.71
  12   2  -5   -0.26    1.46
  11   2  -4   -0.06    1.31
  10   2  -3    5.83    1.45
   9   2  -2    0.22    1.15
   8   2  -1    0.38    1.04
   7   2   0    6.07    1.12
   6   2   1    6.73    0.92
   6   2   1    6.80    1.05
   5   2   2   13.75    1.19
   4   2   3   12.65    1.16
   3   2   4   10.31    1.04
   2   2   5   -0.06    0.63
   1   2   6    2.58    0.79
   0   2   7  115.62    5.38
   1  -2  -8    1.24    0.75
  -1   2   8    0.83    0.90
   2  -2  -9    1.27    0.84
  -2   2   9    0.52    0.97
   3  -2 -10   14.97    1.62
  -3   2  10   18.76    1.77
   4  -2 -11    9.86    1.49
  -4   2  11   11.22    1.58
   5  -2 -12    6.85    1.55
  -5   2  12    7.96    1.53
   6  -2 -13    3.05    1.58
  -6   2  13    1.78    1.25
   7  -2 -14    1.77    1.61
  -7   2  14    1.90    1.42
  12   1  -4    2.03    1.49
  11   1  -3    3.69    1.43
  10   1  -2   -0.61    1.17
   9   1  -1    1.96    1.12
   8   1   0    1.57    0.98
   7   1   1    6.15    1.11
   6   1   2   12.89    1.43
   5   1   3   17.09    1.34
   5   1   3   18.13    1.46
   4   1   4    8.55    0.98
   4   1   4    9.48    1.01
   3   1   5    5.34    0.83
   2   1   6    2.22    0.74
   1   1   7   78.75    3.85
   0   1   8    0.52    0.82
  -1   1   9    5.25    1.10
  -2   1  10    1.77    0.98
  -3   1  11   26.49    2.13
  -4   1  12    5.76    1.34
  -5   1  13    1.61    1.24
  -6   1  14    4.25    1.51
  -7   1  15    2.28    1.52
  12   0  -3    1.04    1.46
  11   0  -2   -1.90    1.22
  10   0  -1   -0.43    1.12
   9   0   0   -0.79    1.02
   8   0   1    4.14    1.11
   7   0   2    3.93    1.03
   6   0   3    0.68    0.79
   5   0   4    8.95    0.99
   5   0   4    7.46    1.08
   4   0   5    1.69    0.72
   4   0   5    1.33    0.71
   3   0   6    3.72    0.86
   3   0   6    3.45    0.83
   2   0   7  131.35    6.48
   2   0   7  128.02    5.97
   1   0   8    0.66    0.81
   0   0   9   -0.69    0.82
  -1   0  10    4.71    1.15
  -2   0  11   22.51    1.97
  -3   0  12    7.07    1.41
  -4   0  13    1.38    1.17
  -5   0  14    9.31    1.70
  -6   0  15    4.49    1.61
  12  -1  -2   -0.54    1.44
  11  -1  -1   -0.80    1.24
  10  -1   0    0.20    1.19
   9  -1   1    3.14    1.25
   8  -1   2    0.74    1.00
   7  -1   3    1.15    0.90
   6  -1   4    3.70    0.99
   5  -1   5    4.24    1.00
   4  -1   6    8.35    1.23
   4  -1   6   12.14    1.17
   3  -1   7   70.19    3.60
   3  -1   7   73.81    3.91
   2  -1   8    1.03    0.88
   1  -1   9    4.28    1.08
   0  -1  10    3.82    1.09
  -1  -1  11   38.75    2.53
  -2  -1  12   11.73    1.56
  -3  -1  13   -0.33    1.06
  -4  -1  14    5.11    1.40
  -5  -1  15   11.06    1.83
  -6  -1  16    3.12    1.61
  11  -2   0    0.00    1.42
   9  -2   2   -1.34    1.08
   8  -2   3    0.12    1.01
   7  -2   4   13.88    1.64
   6  -2   5    5.12    1.13
   5  -2   6    5.68    1.14
   4  -2   7   12.74    1.34
   4  -2   7   12.81    1.50
   3  -2   8   15.30    1.56
   3  -2   8   16.62    1.73
   2  -2   9    1.85    0.97
   1  -2  10    2.39    1.03
   0  -2  11   23.57    1.98
  -1  -2  12    9.16    1.46
  -2  -2  13   -0.03    1.08
  -3  -2  14    7.01    1.45
  -4  -2  15    8.18    1.60
  -5  -2  16    1.92    1.45
  11  -3   1    2.09    1.60
  10  -3   2   -0.71    1.36
   9  -3   3   -1.45    1.20
   8  -3   4    5.68    1.44
   7  -3   5    3.73    1.24
   6  -3   6   16.70    1.84
   5  -3   7   17.74    1.83
   4  -3   8   10.64    1.33
   4  -3   8   11.43    1.53
   3  -3   9    2.02    0.96
   3  -3   9    1.09    0.98
   1  -3  11   28.37    2.18
   0  -3  12    6.41    1.35
  -1  -3  13    1.51    1.15
  -2  -3  14    8.59    1.53
  -3  -3  15    8.75    1.65
  -4  -3  16   -0.50    1.23
  10  -4   3   -0.53    1.53
   9  -4   4   -0.76    1.29
   8  -4   5    1.08    1.37
   7  -4   6   11.67    1.82
   6  -4   7    3.83    1.25
   5  -4   8    8.42    1.44
   4  -4   9    1.01    0.92
   3  -4  10    7.76    1.39
   2  -4  11   12.13    1.49
   1  -4  12    4.21    1.24
   0  -4  13    0.90    1.16
  -1  -4  14   12.70    1.77
  -2  -4  15    5.60    1.47
  -3  -4  16    2.39    1.46
  10  -5   4   -0.43    1.74
   9  -5   5   -0.46    1.50
   8  -5   6    2.73    1.52
   7  -5   7    2.03    1.38
   6  -5   8    5.97    1.46
   5  -5   9    2.12    1.12
   4  -5  10   10.56    1.53
   3  -5  11    8.22    1.50
   3  -5  11    6.68    1.25
   2  -5  12    3.12    1.17
   1  -5  13    1.44    1.21
  -1  -5  15    9.82    1.68
  -2  -5  16    4.46    1.51
   8  -6   7    1.44    1.64
   7  -6   8    3.99    1.59
   6  -6   9    1.18    1.21
   5  -6  10    6.76    1.53
   4  -6  11   -0.66    1.01
   3  -6  12    4.13    1.22
   3  -6  12    4.57    1.38
   2  -6  13    0.19    1.11
   1  -6  14    3.84    1.38
   0  -6  15    3.84    1.46
  -1  -6  16    0.50    1.42
   6  -7  10    2.60    1.44
   5  -7  11    0.25    1.33
   4  -7  12    1.45    1.30
   3  -7  13    1.51    1.35
   2  -7  14    0.95    1.23
   5  11  -6    1.06    1.42
   4  11  -5    1.99    1.61
   3  11  -4    3.17    1.60
   2  11  -3    0.73    1.53
  -1 -11   2   -0.26    1.17
   1  11  -2    1.96    1.59
   0 -11   1   -0.75    1.32
   0  11  -1   -0.08    1.45
   1 -11   0    0.69    1.48
  -1  11   0    3.86    1.58
   2 -11  -1    1.30    1.55
  -2  11   1    1.52    1.25
   3 -11  -2   -1.19    1.51
   7  10  -7    0.49    1.36
   6  10  -6    1.53    1.46
   5  10  -5    2.96    1.41
   4  10  -4    4.42    1.48
   3  10  -3    4.20    1.49
   2  10  -2    2.08    1.40
  -1 -10   1    1.71    1.06
   1  10  -1    2.12    1.31
   0 -10   0    4.68    1.35
   0  10   0    5.60    1.55
   1 -10  -1    0.06    1.29
  -1  10   1   -0.72    1.18
   2 -10  -2   -0.58    1.23
   3 -10  -3   -0.53    1.28
   4 -10  -4    0.42    1.48
   8   9  -7    0.38    1.31
   7   9  -6    1.59    1.33
   6   9  -5    5.95    1.49
   5   9  -4    4.14    1.32
   4   9  -3    5.90    1.42
   3   9  -2   -0.32    1.04
  -2  -9   1    5.43    1.06
   2   9  -1    7.15    1.46
  -1  -9   0    7.30    1.19
   1   9   0    6.77    1.39
   0  -9  -1   -0.27    0.97
   0   9   1    0.87    1.10
   1  -9  -2    0.59    1.07
  -1   9   2    1.88    1.18
   2  -9  -3    2.31    1.20
  -2   9   3    4.27    1.29
   3  -9  -4    1.99    1.25
   4  -9  -5    1.24    1.23
   5  -9  -6    0.77    1.24
   9   8  -7    2.85    1.44
   8   8  -6    3.08    1.37
   7   8  -5    2.30    1.28
   6   8  -4    0.91    1.14
   5   8  -3    7.24    1.32
   4   8  -2    0.78    0.98
   3   8  -1   10.20    1.38
  -2  -8   0    9.80    1.09
   2   8   0    9.04    1.36
  -1  -8  -1    1.82    0.86
   1   8   1    2.43    1.08
   0  -8  -2    1.01    0.85
   0   8   2    2.09    1.09
   1  -8  -3    5.58    1.18
  -1   8   3   10.23    1.48
   2  -8  -4    3.53    1.15
  -2   8   4    7.78    1.40
   3  -8  -5    3.22    1.19
   4  -8  -6   -0.43    1.10
   5  -8  -7    3.10    1.31
  10   7  -7    1.78    1.24
  10   7  -7    0.15    1.66
   9   7  -6    1.78    1.20
   8   7  -5    3.91    1.26
   7   7  -4    0.16    1.01
   6   7  -3    8.88    1.34
   5   7  -2    1.65    0.98
   4   7  -1   11.28    1.32
  -3  -7   0    3.80    0.77
   3   7   0    3.55    1.00
  -2  -7  -1    4.61    0.91
   2   7   1    5.59    1.07
  -1  -7  -2    1.50    0.80
   1   7   2    1.84    0.98
   0  -7  -3    0.11    0.77
   0   7   3    1.05    0.98
   1  -7  -4    4.59    1.04
  -1   7   4    8.15    1.31
   2  -7  -5    6.15    1.21
  -2   7   5   13.27    1.54
   3  -7  -6   -0.48    0.94
  -3   7   6    1.46    1.11
   4  -7  -7    3.48    1.25
   5  -7  -8   -0.81    1.09
   6  -7  -9    2.31    1.34
  10   6  -6    1.31    1.71
  10   6  -6    0.37    1.16
   9   6  -5    3.87    1.19
   9   6  -5    2.14    1.47
   8   6  -4    0.64    1.01
   8   6  -4    0.64    1.21
   7   6  -3    8.51    1.25
   6   6  -2    0.88    0.86
   5   6  -1   11.41    1.28
   4   6   0   -0.02    0.76
  -3  -6  -1    4.14    0.76
   3   6   1    4.14    0.98
  -2  -6  -2   12.06    1.18
   2   6   2   11.71    1.34
  -1  -6  -3    5.02    0.92
   1   6   3    4.84    1.04
   0  -6  -4    3.68    0.88
   0   6   4    4.46    1.06
   1  -6  -5    2.62    0.91
  -1   6   5    2.68    1.04
   2  -6  -6    8.14    1.32
  -2   6   6   14.12    1.55
   3  -6  -7    5.46    1.26
  -3   6   7    8.83    1.39
   4  -6  -8    0.98    1.08
  -4   6   8    0.05    1.03
   5  -6  -9    5.55    1.51
   6  -6 -10    0.83    1.31
  11   5  -6    3.05    1.65
  10   5  -5    2.63    1.49
   9   5  -4    2.12    1.08
   9   5  -4    1.97    1.29
   8   5  -3    5.29    1.12
   8   5  -3    5.39    1.27
   7   5  -2   -0.30    0.79
   6   5  -1   12.15    1.25
   5   5   0    0.68    0.75
   4   5   1    6.47    1.00
   3   5   2    9.04    1.15
  -2  -5  -3    4.35    0.82
   2   5   3    3.84    0.95
  -1  -5  -4    2.75    0.78
   1   5   4    3.64    0.95
   0  -5  -5    7.26    1.01
   0   5   5    6.58    1.18
   1  -5  -6    4.70    0.93
  -1   5   6    4.50    1.03
   2  -5  -7    6.66    1.14
  -2   5   7    8.99    1.31
   3  -5  -8    2.20    1.04
  -3   5   8    0.54    0.95
   4  -5  -9   10.74    1.57
  -4   5   9   11.22    1.49
   5  -5 -10    3.53    1.31
   6  -5 -11    3.29    1.55
  11   4  -5    2.34    1.51
  10   4  -4    1.05    1.34
   9   4  -3    2.99    1.29
   8   4  -2    1.32    0.78
   7   4  -1    5.62    1.16
   7   4  -1   10.92    1.15
   6   4   0    0.50    0.72
   5   4   1    4.13    0.89
   4   4   2   11.28    1.18
   3   4   3    6.33    0.99
   2   4   4    3.75    0.92
  -1  -4  -5    8.22    1.00
   1   4   5    7.90    1.12
   0  -4  -6   38.49    2.19
   0   4   6   39.95    2.37
   1  -4  -7   12.50    1.39
  -1   4   7   15.16    1.52
   2  -4  -8    6.42    1.16
  -2   4   8    9.48    1.27
   3  -4  -9    5.71    1.22
  -3   4   9    5.06    1.18
   4  -4 -10   14.44    1.81
  -4   4  10   14.84    1.67
   5  -4 -11    3.85    1.38
  -5   4  11    4.72    1.29
   6  -4 -12   -0.73    1.40
  11   3  -4    1.82    1.40
  10   3  -3    0.96    1.26
   9   3  -2   -0.34    1.16
   8   3  -1    5.89    1.25
   8   3  -1    6.56    1.03
   7   3   0    3.27    1.04
   6   3   1    2.88    0.80
   5   3   2    8.58    1.05
   4   3   3    4.46    0.88
   3   3   4   -0.67    0.69
   2   3   5    9.54    1.13
   1   3   6   62.75    3.23
   0  -3  -7    3.35    0.80
   0   3   7    3.20    0.95
   1  -3  -8    1.00    0.74
  -1   3   8    0.27    0.85
   2  -3  -9   13.51    1.48
  -2   3   9   14.47    1.57
   3  -3 -10   18.73    1.82
  -3   3  10   20.25    1.90
   4  -3 -11    8.85    1.52
  -4   3  11   11.26    1.55
   5  -3 -12    2.06    1.29
  -5   3  12    2.71    1.26
   6  -3 -13    3.84    1.64
  11   2  -3    0.92    1.37
  10   2  -2    0.01    1.26
   9   2  -1    3.57    1.26
   8   2   0    5.45    1.17
   7   2   1    2.76    0.98
   6   2   2    9.55    1.19
   6   2   2   11.00    1.12
   5   2   3    4.47    0.85
   4   2   4    2.15    0.81
   3   2   5    8.62    1.07
   2   2   6   41.71    2.36
   1   2   7    1.27    0.85
   0   2   8   -0.72    0.82
  -1   2   9    1.29    0.98
   2  -2 -10   41.76    2.45
  -2   2  10   39.14    2.59
   3  -2 -11    8.97    1.44
  -3   2  11   10.59    1.52
   4  -2 -12    2.96    1.22
  -4   2  12    2.52    1.25
   5  -2 -13    2.36    1.34
  -5   2  13    3.38    1.39
   6  -2 -14    6.10    1.81
  -6   2  14    5.46    1.65
  12   1  -3   -1.58    1.37
  11   1  -2    1.06    1.39
  10   1  -1    1.12    1.25
   9   1   0    5.15    1.31
   8   1   1    0.41    1.00
   7   1   2    0.82    0.88
   6   1   3    3.39    0.94
   5   1   4    2.72    0.82
   5   1   4    1.65    0.78
   4   1   5    7.17    0.99
   3   1   6   61.75    3.16
   2   1   7    2.05    0.87
   1   1   8    4.53    1.07
   0   1   9    1.63    0.98
  -1   1  10   40.46    2.58
  -2   1  11   10.26    1.48
  -3   1  12    0.89    1.10
  -4   1  13    7.47    1.55
  -5   1  14   15.04    2.09
  -6   1  15    2.15    1.53
  11   0  -1    1.04    1.43
  10   0   0    0.67    1.27
   9   0   1   -1.52    1.04
   8   0   2    0.39    1.03
   7   0   3    0.86    0.97
   6   0   4    4.44    1.01
   5   0   5    6.66    0.99
   5   0   5    6.47    1.10
   4   0   6   40.29    2.31
   4   0   6   39.37    2.43
   3   0   7    3.20    0.92
   3   0   7    2.81    0.83
   2   0   8    0.37    0.89
   1   0   9    2.24    0.99
   0   0  10   74.02    3.90
  -1   0  11   13.24    1.62
  -2   0  12    1.20    1.11
  -3   0  13    2.83    1.33
  -4   0  14   23.84    2.37
  -5   0  15    1.63    1.48
  11  -1   0    1.18    1.49
  10  -1   1    0.17    1.33
   9  -1   2   -0.24    1.19
   8  -1   3    5.25    1.27
   7  -1   4    3.92    1.13
   6  -1   5    2.34    1.04
   5  -1   6    5.07    1.08
   4  -1   7   13.02    1.35
   4  -1   7   13.95    1.51
   3  -1   8    1.93    0.95
   3  -1   8    1.28    0.84
   2  -1   9    0.64    0.91
   1  -1  10   43.11    2.71
   0  -1  11   11.80    1.60
  -1  -1  12    0.25    1.11
  -2  -1  13    2.65    1.30
  -3  -1  14   17.90    2.06
  -4  -1  15    1.89    1.46
  -5  -1  16    0.22    1.47
  11  -2   1    0.74    1.56
  10  -2   2   -1.05    1.37
   9  -2   3    1.67    1.33
   8  -2   4    4.77    1.43
   7  -2   5    8.84    1.51
   6  -2   6   12.00    1.66
   5  -2   7    7.22    1.31
   4  -2   8    8.78    1.39
   4  -2   8    7.64    1.19
   3  -2   9   13.99    1.66
   3  -2   9   14.57    1.54
   2  -2  10   44.28    2.78
   1  -2  11    8.90    1.45
   0  -2  12   -0.51    1.09
  -1  -2  13    5.79    1.49
  -2  -2  14   24.98    2.30
  -3  -2  15    1.65    1.33
  -4  -2  16   -0.73    1.32
  10  -3   3   -0.02    1.53
   9  -3   4    2.72    1.53
   8  -3   5    6.41    1.58
   7  -3   6   -0.26    1.20
   6  -3   7   10.28    1.63
   5  -3   8   -0.03    1.02
   4  -3   9    6.50    1.18
   4  -3   9    6.68    1.39
   3  -3  10   18.68    2.04
   3  -3  10   21.92    1.95
   2  -3  11    6.86    1.37
   1  -3  12    1.54    1.21
   0  -3  13    3.83    1.30
  -1  -3  14   18.38    2.14
  -2  -3  15    1.34    1.31
  -3  -3  16    0.99    1.36
  10  -4   4   -0.22    1.73
   9  -4   5   -0.32    1.64
   8  -4   6   -1.13    1.36
   7  -4   7    4.45    1.59
   6  -4   8    3.47    1.35
   5  -4   9   13.35    1.84
   4  -4  10   18.70    2.05
   3  -4  11    9.19    1.63
   3  -4  11    9.12    1.44
   2  -4  12    5.10    1.38
   1  -4  13   15.88    1.92
   0  -4  14   26.55    2.43
  -1  -4  15    1.16    1.35
  -2  -4  16    0.40    1.34
   9  -5   6   -0.04    1.70
   8  -5   7    4.97    1.91
   7  -5   8    0.22    1.37
   6  -5   9    5.54    1.57
   5  -5  10    3.86    1.45
   4  -5  11    5.37    1.47
   3  -5  12    3.50    1.33
   3  -5  12    1.31    1.14
   2  -5  13    4.12    1.37
   1  -5  14   10.87    1.72
   0  -5  15    1.16    1.39
  -1  -5  16    0.73    1.39
   7  -6   9    3.79    1.77
   6  -6  10    1.23    1.47
   5  -6  11    3.53    1.55
   4  -6  12   -0.26    1.18
   4  -6  12    0.67    1.23
   3  -6  13    3.66    1.49
   3  -6  13    2.22    1.28
   2  -6  14    3.11    1.36
   1  -6  15    0.86    1.36
   4  11  -4    1.68    1.52
   3  11  -3    1.64    1.56
   2  11  -2    1.00    1.59
  -1 -11   1    4.09    1.31
   1  11  -1    3.96    1.66
   0 -11   0   -1.50    1.24
   0  11   0    1.18    1.52
   1 -11  -1   -1.02    1.41
  -1  11   1   -1.43    1.26
   2 -11  -2   -2.04    1.55
   6  10  -5    1.46    1.45
   5  10  -4    2.45    1.35
   4  10  -3    1.00    1.36
   3  10  -2    2.54    1.40
   2  10  -1    5.98    1.52
  -1 -10   0    0.80    1.09
   1  10   0    0.77    1.42
   0 -10  -1   -0.23    1.10
   0  10   1    1.60    1.45
   1 -10  -2    0.75    1.25
  -1  10   2    2.53    1.43
   2 -10  -3    2.86    1.50
  -2  10   3    6.11    1.44
   3 -10  -4    0.91    1.42
   8   9  -6    1.70    1.34
   7   9  -5    0.90    1.34
   6   9  -4    4.46    1.38
   5   9  -3    0.27    1.20
   4   9  -2    3.95    1.25
   3   9  -1    6.43    1.46
  -2  -9   0    1.42    0.91
   2   9   0    0.20    1.13
  -1  -9  -1    2.17    1.04
   1   9   1    2.58    1.32
   0  -9  -2    4.73    1.23
   0   9   2    6.38    1.42
   1  -9  -3    3.58    1.20
  -1   9   3    9.22    1.55
   2  -9  -4    1.83    1.25
  -2   9   4    2.09    1.28
   3  -9  -5   -0.63    1.15
  -3   9   5   -0.06    1.11
   4  -9  -6    0.01    1.26
   9   8  -6    1.73    1.33
   8   8  -5    1.11    1.26
   7   8  -4    3.61    1.29
   6   8  -3    2.71    1.21
   5   8  -2    4.32    1.26
   4   8  -1    3.57    1.13
  -3  -8   0    3.83    0.90
   3   8   0    4.49    1.18
  -2  -8  -1    0.88    0.80
   2   8   1    2.19    1.10
  -1  -8  -2    6.90    1.13
   1   8   2    8.45    1.44
   0  -8  -3    7.91    1.25
   0   8   3    9.04    1.51
   1  -8  -4    3.55    1.16
  -1   8   4    6.08    1.39
   2  -8  -5   -0.17    0.99
  -2   8   5    0.63    1.15
   3  -8  -6    0.37    1.08
  -3   8   6    2.17    1.20
   4  -8  -7   -1.22    1.10
   5  -8  -8    2.85    1.41
  10   7  -6    0.01    1.67
   9   7  -5   -0.22    1.24
   8   7  -4    1.49    1.18
   7   7  -3    0.58    1.06
   6   7  -2    3.96    1.17
   5   7  -1   -0.69    0.86
   4   7   0    7.91    1.23
  -3  -7  -1    6.25    0.96
   3   7   1    6.52    1.24
  -2  -7  -2   14.04    1.33
   2   7   2   16.89    1.66
  -1  -7  -3    5.56    1.02
   1   7   3    7.77    1.34
   0  -7  -4    0.76    0.80
   0   7   4    1.61    1.07
   1  -7  -5    1.13    0.92
  -1   7   5   -0.13    1.10
   2  -7  -6    3.96    1.20
  -2   7   6    4.85    1.30
   3  -7  -7    1.15    1.08
  -3   7   7    0.62    1.13
   4  -7  -8    2.41    1.29
  -4   7   8    4.71    1.31
   5  -7  -9   -0.52    1.25
  10   6  -5    2.44    1.60
  10   6  -5   -0.25    1.15
   9   6  -4    3.45    1.20
   9   6  -4    3.73    1.41
   8   6  -3    0.44    0.98
   7   6  -2    5.38    1.17
   6   6  -1    0.22    0.84
   5   6   0    7.20    1.15
   4   6   1    4.25    1.02
   3   6   2   19.08    1.66
  -2  -6  -3    4.02    0.84
   2   6   3    6.44    1.11
  -1  -6  -4    3.01    0.84
   1   6   4    1.91    1.01
   0  -6  -5    0.38    0.72
   0   6   5    0.82    0.95
   1  -6  -6    4.55    1.03
  -1   6   6    5.98    1.27
   2  -6  -7    3.11    1.04
  -2   6   7    2.66    1.15
   3  -6  -8    7.76    1.44
  -3   6   8    5.19    1.32
   4  -6  -9    0.58    1.13
  -4   6   9    1.37    1.18
   5  -6 -10    1.06    1.41
  11   5  -5    1.29    1.56
  10   5  -4    1.32    1.42
   9   5  -3    0.64    1.00
   9   5  -3    0.99    1.22
   8   5  -2    2.24    1.14
   8   5  -2    3.40    1.02
   7   5  -1    0.55    0.83
   6   5   0    5.55    1.03
   5   5   1    5.85    1.04
   4   5   2   21.54    1.66
   3   5   3    1.29    0.85
   2   5   4    5.06    1.04
  -1  -5  -5    3.39    0.84
   1   5   5    4.07    1.01
   0  -5  -6    9.08    1.15
   0   5   6   10.07    1.31
   1  -5  -7    4.55    1.06
  -1   5   7    6.27    1.22
   2  -5  -8    1.89    0.94
  -2   5   8    3.87    1.18
   3  -5  -9    4.78    1.23
  -3   5   9    7.01    1.36
   4  -5 -10    5.66    1.45
  -4   5  10    5.12    1.29
   5  -5 -11    0.04    1.26
  -5   5  11    0.82    1.14
   6  -5 -12    4.52    1.76
  11   4  -4    3.12    1.53
  10   4  -3    0.79    1.30
   9   4  -2    2.94    1.22
   8   4  -1    1.50    1.06
   8   4  -1    2.34    0.92
   7   4   0    5.68    0.99
   6   4   1    2.85    0.90
   5   4   2   21.80    1.63
   4   4   3    0.64    0.76
   3   4   4    4.21    0.95
   2   4   5   12.69    1.36
   1   4   6   11.86    1.37
   0  -4  -7    2.64    0.82
   0   4   7    0.99    0.90
   1  -4  -8   10.09    1.31
  -1   4   8   11.53    1.44
   2  -4  -9    8.95    1.32
  -2   4   9    9.22    1.40
   3  -4 -10    7.82    1.41
  -3   4  10    8.07    1.41
   4  -4 -11    1.02    1.15
  -4   4  11    0.49    1.11
   5  -4 -12    1.45    1.47
  -5   4  12    3.07    1.31
   6  -4 -13   -0.74    1.57
  11   3  -3    1.11    1.37
  10   3  -2    2.22    1.31
   9   3  -1    3.58    1.24
   8   3   0    2.02    1.08
   7   3   1    5.73    1.03
   6   3   2   20.47    1.57
   5   3   3    1.44    0.78
   4   3   4    5.54    1.00
   3   3   5    2.73    0.91
   2   3   6   12.83    1.36
   1   3   7    1.88    0.89
   0   3   8    0.29    0.87
   1  -3  -9   23.98    1.78
  -1   3   9   25.06    1.99
   2  -3 -10    6.33    1.19
  -2   3  10    7.25    1.32
   3  -3 -11    1.13    1.06
  -3   3  11    1.42    1.19
   4  -3 -12    4.51    1.39
  -4   3  12    2.78    1.39
   5  -3 -13    1.46    1.44
  -5   3  13    2.25    1.38
  11   2  -2   -1.79    1.30
  10   2  -1    1.10    1.24
   9   2   0   -1.74    1.07
   8   2   1   -1.02    0.98
   7   2   2    9.26    1.27
   6   2   3    2.35    0.88
   6   2   3    4.58    0.87
   5   2   4    3.84    0.92
   4   2   5   10.63    1.23
   3   2   6   13.11    1.35
   2   2   7    1.06    0.84
   1   2   8    0.57    0.89
   0   2   9   18.54    1.78
  -1   2  10   11.71    1.51
  -2   2  11    1.11    1.14
  -3   2  12    7.45    1.51
  -4   2  13    7.59    1.61
  -5   2  14    2.78    1.52
  11   1  -1    2.84    1.47
  10   1   0    0.47    1.25
   9   1   1   -0.71    1.10
   7   1   3    2.63    1.04
   6   1   4    1.26    0.83
   6   1   4    1.96    0.92
   5   1   5    3.94    0.93
   4   1   6   11.83    1.29
   3   1   7    1.08    0.85
   2   1   8    2.09    0.95
   1   1   9   38.76    2.49
   0   1  10   12.64    1.56
  -1   1  11    0.80    1.07
  -2   1  12    3.21    1.24
  -3   1  13   19.43    2.15
  -4   1  14    1.85    1.43
  -5   1  15    1.12    1.52
  11   0   0   -1.73    1.34
  10   0   1    1.30    1.37
   9   0   2    3.70    1.36
   8   0   3    3.04    1.17
   7   0   4    0.25    0.96
   6   0   5   -0.06    0.91
   5   0   6   10.51    1.18
   5   0   6    9.35    1.32
   4   0   7    1.16    0.86
   4   0   7    1.76    0.88
   3   0   8    0.78    0.91
   2   0   9   23.48    1.91
   1   0  10   10.72    1.47
   0   0  11   -0.82    1.05
  -1   0  12    5.00    1.34
  -2   0  13    9.48    1.66
  -3   0  14    2.15    1.40
  -4   0  15    0.94    1.46
  11  -1   1   -1.70    1.43
  10  -1   2   -0.17    1.35
   9  -1   3    5.70    1.51
   8  -1   4    0.95    1.25
   7  -1   5    0.68    1.07
   6  -1   6    6.47    1.36
   5  -1   7    5.98    1.13
   5  -1   7    6.41    1.25
   4  -1   8   10.89    1.38
   4  -1   8    9.47    1.39
   3  -1   9   22.84    1.94
   3  -1   9   22.74    1.95
   2  -1  10    8.02    1.32
   2  -1  10    8.92    1.42
   1  -1  11   -0.26    1.06
   0  -1  12    4.64    1.34
  -1  -1  13   13.87    1.89
  -2  -1  14    0.67    1.39
  -3  -1  15    0.90    1.46
  -4  -1  16    2.60    1.65
  11  -2   2   -0.10    1.67
  10  -2   3    1.05    1.60
   9  -2   4    2.82    1.50
   8  -2   5   -1.45    1.27
   7  -2   6    3.03    1.42
   6  -2   7    2.57    1.26
   5  -2   8    2.29    1.19
   5  -2   8    4.34    1.10
   4  -2   9   10.47    1.55
   4  -2   9    7.70    1.35
   3  -2  10    8.35    1.41
   3  -2  10    8.73    1.42
   2  -2  11   -0.21    1.11
   1  -2  12    3.93    1.40
   0  -2  13    8.20    1.63
  -1  -2  14    0.71    1.37
  -2  -2  15    2.73    1.52
  -3  -2  16   -0.12    1.46
  10  -3   4   -1.49    1.62
   9  -3   5   -0.27    1.58
   8  -3   6    2.63    1.58
   7  -3   7    2.71    1.54
   6  -3   8   11.59    1.86
   5  -3   9    6.69    1.30
   5  -3   9    9.11    1.66
   4  -3  10    7.65    1.35
   4  -3  10    9.22    1.60
   3  -3  11    4.22    1.32
   3  -3  11    1.51    1.15
   2  -3  12   13.10    1.75
   1  -3  13   16.78    2.03
   0  -3  14    0.83    1.40
  -1  -3  15    1.98    1.53
  -2  -3  16    3.02    1.58
   9  -4   6    2.85    1.94
   8  -4   7    2.12    1.72
   7  -4   8    5.31    1.79
   6  -4   9    2.63    1.50
   5  -4  10    7.62    1.68
   4  -4  11    1.22    1.30
   4  -4  11    1.92    1.24
   3  -4  12    7.39    1.57
   3  -4  12    9.08    1.69
   2  -4  13    6.54    1.63
   1  -4  14    2.41    1.48
   0  -4  15    0.46    1.42
  -1  -4  16    3.68    1.58
   8  -5   8    3.93    1.95
   7  -5   9    1.63    1.77
   6  -5  10    4.12    1.64
   5  -5  11    1.31    1.46
   4  -5  12    1.12    1.26
   4  -5  12    3.10    1.48
   3  -5  13    3.68    1.52
   3  -5  13    1.67    1.37
   2  -5  14    2.56    1.49
   1  -5  15   -0.42    1.42
   3  11  -2    1.34    1.59
   2  11  -1    3.48    1.62
  -1 -11   0   -1.11    1.25
   1  11   0    2.11    1.53
   0 -11  -1    0.48    1.38
   0  11   1    0.83    1.57
   6  10  -4    0.13    1.30
   5  10  -3    1.54    1.40
   4  10  -2    2.55    1.41
   3  10  -1    3.59    1.48
  -2 -10   0    1.58    1.12
   2  10   0    0.94    1.41
  -1 -10  -1    0.37    1.10
   1  10   1    2.24    1.52
   0 -10  -2    4.10    1.44
   0  10   2    7.87    1.68
   1 -10  -3    2.28    1.38
  -1  10   3    1.43    1.43
   2 -10  -4   -1.05    1.34
  -2  10   4    2.15    1.36
   7   9  -4    2.92    1.37
   6   9  -3    2.27    1.31
   5   9  -2    0.66    1.18
   4   9  -1    2.70    1.31
   3   9   0    1.35    1.23
  -2  -9  -1    3.43    1.10
   2   9   1    4.85    1.40
  -1  -9  -2    8.67    1.38
   1   9   2    6.98    1.56
   0  -9  -3    3.56    1.24
   0   9   3    4.44    1.48
   1  -9  -4    0.26    1.12
  -1   9   4    0.95    1.36
   2  -9  -5   -0.34    1.18
  -2   9   5    1.11    1.33
   3  -9  -6    3.16    1.48
  -3   9   6    4.40    1.44
   8   8  -4    0.11    1.24
   7   8  -3    2.65    1.28
   6   8  -2   -0.54    1.05
   5   8  -1    8.17    1.46
   4   8   0    0.41    1.01
  -3  -8  -1    5.32    1.06
   3   8   1    7.57    1.38
  -2  -8  -2    4.44    1.02
   2   8   2    7.06    1.43
  -1  -8  -3    3.44    1.04
   1   8   3    5.07    1.36
   0  -8  -4    3.43    1.06
   0   8   4    5.13    1.47
   1  -8  -5    1.03    1.02
  -1   8   5    1.31    1.34
   2  -8  -6    1.69    1.20
  -2   8   6    5.39    1.44
   3  -8  -7    2.54    1.32
  -3   8   7    2.90    1.27
   4  -8  -8   -1.46    1.23
   9   7  -4    0.96    1.27
   8   7  -3    1.30    1.19
   7   7  -2    0.12    1.01
   6   7  -1    6.16    1.24
   5   7   0    0.31    0.95
   4   7   1    9.88    1.37
   3   7   2    2.10    1.10
  -2  -7  -3    6.63    1.06
   2   7   3    8.43    1.38
  -1  -7  -4    0.67    0.81
   1   7   4    0.63    1.10
   0  -7  -5    1.29    0.90
   0   7   5    2.21    1.20
   1  -7  -6    2.75    1.06
  -1   7   6    7.14    1.45
   2  -7  -7    5.35    1.27
  -2   7   7    8.37    1.53
   3  -7  -8    0.97    1.17
  -3   7   8    2.04    1.27
   4  -7  -9    2.15    1.31
  -4   7   9    2.33    1.28
  10   6  -4   -0.84    1.41
  10   6  -4   -0.62    1.21
   9   6  -3    0.25    1.26
   9   6  -3    1.34    1.15
   8   6  -2    0.33    0.97
   7   6  -1    7.04    1.24
   6   6   0   -0.05    0.91
   5   6   1   10.35    1.36
   4   6   2    0.97    0.91
   3   6   3   17.07    1.66
  -2  -6  -4    7.99    1.12
   2   6   4   12.64    1.48
  -1  -6  -5    4.33    0.96
   1   6   5    7.14    1.28
   0  -6  -6    3.34    0.96
   0   6   6    3.33    1.18
   1  -6  -7    4.27    1.16
  -1   6   7    6.92    1.42
   2  -6  -8    7.18    1.37
  -2   6   8    8.32    1.48
   3  -6  -9    3.48    1.26
  -3   6   9    3.12    1.29
   4  -6 -10   -0.29    1.21
  -4   6  10    1.84    1.24
   5  -6 -11    3.06    1.56
  10   5  -3    1.01    1.39
  10   5  -3    0.49    1.18
   9   5  -2    1.19    1.02
   9   5  -2    1.95    1.26
   8   5  -1    6.32    1.20
   7   5   0    0.18    0.89
   6   5   1    9.29    1.25
   5   5   2   -0.63    0.79
   4   5   3   18.51    1.65
   3   5   4   15.81    1.60
   2   5   5    8.54    1.25
  -1  -5  -6    4.72    0.95
   1   5   6    5.41    1.18
   0  -5  -7   13.17    1.45
   0   5   7   17.73    1.72
   1  -5  -8    8.78    1.30
  -1   5   8    9.38    1.44
   2  -5  -9    3.63    1.13
  -2   5   9    7.60    1.43
   3  -5 -10    1.75    1.20
  -3   5  10    1.52    1.19
   4  -5 -11    3.40    1.39
  -4   5  11    2.45    1.26
   5  -5 -12    1.05    1.44
  -5   5  12    1.55    1.22
  11   4  -3   -0.41    1.36
   9   4  -1    2.86    1.05
   8   4   0   -0.41    0.85
   7   4   1    8.17    1.19
   6   4   2    2.32    0.91
   5   4   3   17.10    1.57
   4   4   4    8.30    1.20
   3   4   5    9.44    1.25
   2   4   6    7.93    1.17
   1   4   7    9.94    1.30
   0   4   8   27.28    2.09
   1  -4  -9    3.66    1.01
  -1   4   9    5.04    1.21
   2  -4 -10    1.23    0.99
  -2   4  10    3.37    1.24
   3  -4 -11    0.87    1.12
  -3   4  11    2.92    1.29
   4  -4 -12    4.42    1.52
  -4   4  12    2.46    1.33
   5  -4 -13    3.45    1.69
  -5   4  13    5.25    1.50
  11   3  -2    0.44    1.41
  10   3  -1    0.95    1.23
   9   3   0   -0.76    1.05
   8   3   1    2.76    1.13
   7   3   2    3.94    0.97
   6   3   3   15.57    1.48
   5   3   4   17.44    1.57
   4   3   5    7.35    1.14
   3   3   6    0.93    0.89
   2   3   7   14.31    1.49
   1   3   8   25.31    1.95
   0   3   9   11.70    1.41
  -1   3  10    0.85    1.08
  -2   3  11    4.66    1.38
  -3   3  12   10.24    1.76
  -4   3  13    2.66    1.45
  11   2  -1    2.61    1.45
  10   2   0   -0.90    1.23
   9   2   1    2.53    1.21
   8   2   2    3.10    1.13
   6   2   4    8.56    1.18
   5   2   5    5.37    1.09
   4   2   6    6.20    1.09
   3   2   7   14.47    1.46
   2   2   8   39.23    2.45
   1   2   9   10.11    1.35
   0   2  10   -0.28    1.03
  -1   2  11    3.95    1.30
  -2   2  12   24.33    2.36
  -3   2  13    1.13    1.47
  -4   2  14    1.61    1.64
  11   1   0   -1.60    1.42
  10   1   1   -0.21    1.29
   9   1   2    3.76    1.34
   8   1   3    2.90    1.23
   7   1   4   -0.62    1.01
   6   1   5    3.80    1.03
   6   1   5    3.95    1.09
   5   1   6    4.86    1.04
   4   1   7    8.31    1.21
   3   1   8   22.25    1.87
   2   1   9    9.10    1.36
   1   1  10    0.23    1.07
   0   1  11    5.64    1.31
  -1   1  12   15.68    1.94
  -2   1  13    1.92    1.34
  -3   1  14    2.64    1.52
  -4   1  15    2.88    1.70
  11   0   1   -2.01    1.46
  10   0   2    4.85    1.60
   9   0   3    2.23    1.40
   8   0   4    2.35    1.31
   7   0   5    1.02    1.11
   6   0   6    2.26    1.13
   5   0   7   14.81    1.53
   4   0   8   24.52    1.96
   3   0   9    7.49    1.32
   2   0  10    0.86    1.11
   1   0  11    4.15    1.33
   0   0  12   23.12    2.30
  -1   0  13    0.97    1.25
  -2   0  14   -0.89    1.30
  -3   0  15    0.35    1.51
  10  -1   3   -0.62    1.52
   9  -1   4   -0.66    1.38
   8  -1   5    0.70    1.36
   7  -1   6    4.80    1.42
   6  -1   7    6.99    1.48
   5  -1   8    8.45    1.30
   5  -1   8   11.09    1.59
   4  -1   9    5.27    1.20
   4  -1   9    3.55    1.22
   3  -1  10    0.61    1.00
   3  -1  10    0.01    1.06
   2  -1  11    4.53    1.24
   2  -1  11    3.82    1.29
   1  -1  12   14.74    1.90
   0  -1  13   -1.07    1.26
  -1  -1  14    0.26    1.41
  -2  -1  15    1.42    1.48
  -3  -1  16    5.31    1.80
  10  -2   4   -0.60    1.65
   9  -2   5   -1.01    1.60
   8  -2   6    2.46    1.54
   7  -2   7    8.04    1.76
   6  -2   8    7.99    1.72
   5  -2   9    7.22    1.57
   5  -2   9    5.54    1.27
   4  -2  10    2.88    1.22
   4  -2  10    1.33    1.21
   3  -2  11    8.56    1.54
   3  -2  11    8.98    1.50
   2  -2  12   25.67    2.33
   2  -2  12   23.51    2.34
   1  -2  13    0.19    1.34
   0  -2  14   -2.06    1.34
  -1  -2  15    2.49    1.57
  -2  -2  16    9.80    2.01
   9  -3   6    0.60    1.84
   8  -3   7    2.41    1.76
   7  -3   8    2.11    1.67
   6  -3   9    3.91    1.64
   5  -3  10    2.79    1.43
   5  -3  10    2.36    1.18
   4  -3  11    4.42    1.47
   4  -3  11    7.39    1.50
   3  -3  12   11.53    1.79
   3  -3  12   12.86    1.85
   2  -3  13    2.27    1.46
   1  -3  14    2.07    1.56
   0  -3  15    0.24    1.58
  -1  -3  16    3.80    1.82
   8  -4   8    0.27    1.91
   7  -4   9    3.87    1.91
   6  -4  10    1.00    1.60
   5  -4  11    4.00    1.67
   4  -4  12    3.13    1.44
   4  -4  12    3.82    1.52
   3  -4  13    1.86    1.40
   3  -4  13    3.25    1.53
   2  -4  14    1.36    1.57
   1  -4  15    3.84    1.78
   5  -5  12    1.82    1.69
   4  -5  13    2.17    1.48
   4  -5  13    5.99    1.77
   5  10  -2    0.51    1.32
   4  10  -1   -0.09    1.29
  -3 -10   0    0.47    1.02
   3  10   0    0.89    1.52
  -2 -10  -1    3.18    1.26
   2  10   1    5.41    1.63
  -1 -10  -2    2.68    1.31
   1  10   2    2.96    1.60
   0 -10  -3    1.05    1.29
   0  10   3    0.50    1.55
   1 -10  -4    0.59    1.41
   7   9  -3   -1.26    1.22
   6   9  -2    1.58    1.24
   5   9  -1    1.24    1.28
   4   9   0    2.00    1.31
  -3  -9  -1    1.56    1.02
   3   9   1    4.45    1.45
  -2  -9  -2    1.51    1.04
   2   9   2    3.15    1.44
  -1  -9  -3    0.43    1.05
   1   9   3    0.15    1.32
   0  -9  -4    1.45    1.21
   0   9   4    1.67    1.47
   1  -9  -5    2.89    1.32
  -1   9   5    4.98    1.62
   2  -9  -6   -0.03    1.25
  -2   9   6    1.41    1.47
   8   8  -3   -1.59    1.20
   7   8  -2    3.00    1.27
   6   8  -1    0.52    1.19
   5   8   0    1.32    1.16
   4   8   1    1.60    1.16
   3   8   2    4.01    1.33
  -2  -8  -3    0.37    0.94
   2   8   3    0.51    1.23
  -1  -8  -4    1.62    1.05
   1   8   4    1.50    1.33
   0  -8  -5    2.43    1.15
   0   8   5    4.81    1.49
   1  -8  -6    2.08    1.16
  -1   8   6    3.87    1.49
   2  -8  -7    0.30    1.18
  -2   8   7    0.79    1.29
   3  -8  -8    1.70    1.31
  -3   8   8   -0.89    1.31
   9   7  -3   -0.53    1.28
   8   7  -2    1.75    1.19
   7   7  -1    0.60    1.11
   6   7   0    1.83    1.08
   5   7   1    0.18    1.02
   4   7   2   10.77    1.51
   3   7   3    1.03    1.12
  -2  -7  -4    3.29    0.97
   2   7   4    4.35    1.32
  -1  -7  -5    3.96    1.04
   1   7   5    7.63    1.46
   0  -7  -6    0.56    0.96
   0   7   6    3.22    1.30
   1  -7  -7    1.34    1.08
  -1   7   7    3.75    1.39
   2  -7  -8    0.49    1.08
  -2   7   8    1.08    1.28
   3  -7  -9    2.41    1.42
  -3   7   9    1.82    1.36
   9   6  -2    3.23    1.24
   8   6  -1    0.29    1.11
   7   6   0    2.08    1.06
   6   6   1    0.86    0.98
   5   6   2   10.83    1.45
   4   6   3    3.30    1.12
   3   6   4    8.86    1.38
   2   6   5    1.87    1.13
  -1  -6  -6    3.63    1.02
   1   6   6    6.50    1.31
   0  -6  -7    2.29    0.95
   0   6   7    5.83    1.35
   1  -6  -8    0.82    0.99
  -1   6   8    3.79    1.39
   2  -6  -9    0.97    1.14
  -2   6   9    1.74    1.32
   3  -6 -10   -0.07    1.16
  -3   6  10    4.16    1.47
   4  -6 -11   -0.44    1.37
  10   5  -2    0.76    1.19
  10   5  -2    1.28    1.37
   9   5  -1    0.54    1.03
   8   5   0    1.78    1.05
   7   5   1   -0.79    0.89
   6   5   2    8.72    1.31
   5   5   3    0.58    0.94
   4   5   4    6.51    1.20
   3   5   5   -0.13    0.94
   2   5   6    1.09    1.02
   1   5   7   10.32    1.51
   0  -5  -8    2.05    0.93
   0   5   8    3.85    1.25
   1  -5  -9    1.26    0.98
  -1   5   9    2.09    1.24
   2  -5 -10    1.87    1.09
  -2   5  10    3.19    1.35
   3  -5 -11    0.73    1.18
  -3   5  11    2.67    1.42
   4  -5 -12    2.78    1.52
  -4   5  12    3.45    1.49
  10   4  -1    1.47    1.30
   9   4   0    0.46    1.14
   8   4   1    2.00    0.99
   7   4   2    7.05    1.24
   6   4   3    2.52    0.96
   5   4   4    6.02    1.15
   4   4   5    0.49    0.90
   3   4   6    3.49    1.11
   2   4   7    9.37    1.34
   1   4   8    5.08    1.19
   0   4   9    1.00    1.15
  -1   4  10    4.42    1.38
  -2   4  11    8.17    1.63
   3  -4 -12    1.59    1.31
  -3   4  12    2.24    1.44
   4  -4 -13    1.15    1.44
  -4   4  13    1.41    1.41
  10   3   0    0.82    1.29
   9   3   1    0.57    1.18
   8   3   2    2.06    1.03
   8   3   2    2.29    1.08
   7   3   3    1.87    0.98
   6   3   4    7.18    1.21
   5   3   5    2.43    0.98
   4   3   6    3.25    1.04
   3   3   7   16.30    1.62
   2   3   8   10.15    1.40
   1   3   9    0.84    1.02
   0   3  10    2.74    1.23
  -1   3  11   20.34    2.17
  -2   3  12    2.46    1.45
  -3   3  13    0.90    1.54
  11   2   0    1.21    1.45
  10   2   1    0.96    1.36
   9   2   2    0.93    1.20
   8   2   3   -1.79    1.03
   7   2   4    0.98    1.03
   7   2   4    2.63    0.99
   6   2   5    2.73    0.98
   5   2   6    2.18    0.97
   4   2   7    9.03    1.29
   3   2   8    7.38    1.27
   2   2   9    0.48    1.04
   1   2  10    3.55    1.31
   0   2  11   10.63    1.69
  -1   2  12    3.64    1.47
  -2   2  13    6.58    1.75
  -3   2  14    2.59    1.72
  10   1   2   -1.63    1.34
   9   1   3   -1.24    1.23
   8   1   4   -0.45    1.13
   7   1   5    2.13    1.19
   6   1   6    3.85    1.09
   6   1   6    2.83    1.13
   5   1   7    8.24    1.30
   4   1   8    2.99    1.09
   3   1   9    0.06    1.02
   2   1  10    4.61    1.28
   1   1  11   18.91    2.12
   0   1  12   -0.36    1.34
  -1   1  13    0.15    1.51
  -2   1  14    2.89    1.61
  -3   1  15    6.63    1.87
  10   0   3   -2.07    1.44
   9   0   4   -1.24    1.33
   8   0   5    2.21    1.37
   7   0   6    0.68    1.23
   6   0   7    2.76    1.09
   6   0   7    2.47    1.27
   5   0   8    2.50    1.17
   5   0   8    3.11    1.11
   4   0   9    0.41    1.07
   4   0   9    0.65    1.03
   3   0  10    2.04    1.25
   2   0  11    9.55    1.66
   1   0  12    0.76    1.25
   0   0  13   -1.31    1.31
  -1   0  14   -0.99    1.38
  -2   0  15   12.50    2.18
  10  -1   4   -0.46    1.60
   9  -1   5    1.48    1.64
   8  -1   6    2.64    1.54
   7  -1   7    2.34    1.48
   6  -1   8    2.08    1.09
   6  -1   8    1.53    1.39
   5  -1   9    2.24    1.17
   5  -1   9    0.86    1.28
   4  -1  10    5.47    1.43
   4  -1  10    5.67    1.39
   3  -1  11   14.51    1.91
   3  -1  11   19.85    2.03
   2  -1  12   -0.03    1.36
   1  -1  13   -0.02    1.37
   0  -1  14   -0.33    1.44
  -1  -1  15   29.72    2.98
   9  -2   6    1.50    1.79
   8  -2   7   -1.39    1.55
   7  -2   8    2.13    1.62
   6  -2   9    0.67    1.52
   5  -2  10    4.23    1.26
   5  -2  10    4.07    1.51
   4  -2  11    8.96    1.75
   4  -2  11    5.46    1.50
   3  -2  12    1.19    1.26
   3  -2  12    0.06    1.37
   2  -2  13    5.33    1.51
   2  -2  13    2.01    1.48
   1  -2  14    0.47    1.53
   0  -2  15    7.81    1.98
   8  -3   8    1.10    1.89
   7  -3   9    0.62    1.80
   6  -3  10    2.12    1.69
   5  -3  11    3.38    1.68
   4  -3  12    4.68    1.67
   4  -3  12    2.14    1.45
   3  -3  13    2.32    1.46
   3  -3  13    1.38    1.45
   2  -3  14    1.41    1.57
   2  -3  14    7.30    1.71
   1  -3  15    4.19    1.77
   5  -4  12    4.41    1.81
   4  -4  13    2.11    1.56
   4  -4  13    0.06    1.41
   4  10   0    2.30    1.50
   3  10   1    0.60    1.46
  -2 -10  -2    1.23    1.20
   2  10   2    0.57    1.48
  -1 -10  -3    0.67    1.32
   6   9  -1   -0.05    1.27
   5   9   0    0.42    1.29
   4   9   1    0.25    1.29
   3   9   2    0.30    1.33
  -2  -9  -3    0.16    1.10
   2   9   3    1.40    1.42
  -1  -9  -4    0.12    1.15
   1   9   4    3.46    1.59
   0  -9  -5    1.85    1.32
   0   9   5    3.54    1.62
   1  -9  -6    0.84    1.31
   7   8  -1    2.18    1.35
   6   8   0   -1.07    1.17
   5   8   1    1.50    1.20
   4   8   2    1.38    1.25
   3   8   3    0.22    1.21
  -2  -8  -4    1.56    1.02
   2   8   4    4.16    1.51
  -1  -8  -5    2.03    1.12
   1   8   5    2.93    1.43
   0  -8  -6    1.77    1.16
   0   8   6    2.53    1.48
   1  -8  -7    1.57    1.25
  -1   8   7    2.56    1.51
   2  -8  -8    1.96    1.36
   8   7  -1    1.13    1.26
   7   7   0   -0.12    1.13
   6   7   1    3.69    1.25
   5   7   2    3.01    1.28
   4   7   3    5.32    1.37
   3   7   4    1.82    1.24
   2   7   5    9.20    1.64
  -1  -7  -6    2.64    1.07
   1   7   6    5.37    1.46
   0  -7  -7    1.38    1.04
   0   7   7    3.39    1.42
   1  -7  -8    1.35    1.15
  -1   7   8    4.51    1.57
   2  -7  -9    1.18    1.30
  -2   7   9    1.46    1.49
   9   6  -1    0.74    1.19
   8   6   0   -0.60    1.08
   7   6   1    0.62    1.09
   6   6   2   -1.19    1.01
   5   6   3    5.23    1.32
   4   6   4    0.15    1.04
   3   6   5    7.32    1.42
   2   6   6    6.72    1.46
   1   6   7    3.81    1.33
   0  -6  -8    1.83    1.00
   0   6   8    2.36    1.37
   1  -6  -9    1.06    1.07
  -1   6   9    3.30    1.45
   2  -6 -10    0.60    1.18
  -2   6  10    4.10    1.53
   9   5   0    0.18    1.16
   8   5   1    1.59    1.07
   7   5   2    0.61    1.05
   6   5   3    4.16    1.18
   5   5   4    0.55    1.00
   4   5   5    8.84    1.44
   3   5   6    6.19    1.32
   2   5   7    5.52    1.34
   1   5   8    2.47    1.30
   0   5   9    6.08    1.51
  -1   5  10   13.79    1.87
   2  -5 -11    1.95    1.27
  -2   5  11    4.64    1.58
   3  -5 -12   -0.38    1.24
   9   4   1   -0.90    1.03
   8   4   2    1.01    1.04
   7   4   3    3.70    1.12
   6   4   4    0.88    0.97
   5   4   5    8.68    1.38
   4   4   6   14.16    1.60
   3   4   7    8.77    1.42
   2   4   8    1.93    1.15
   1   4   9    5.69    1.41
   0   4  10   26.97    2.38
  -1   4  11    2.39    1.45
  -2   4  12   -0.34    1.43
  10   3   1    0.49    1.28
   9   3   2   -1.02    1.15
   8   3   3    1.78    1.09
   7   3   4    2.18    1.02
   6   3   5    5.37    1.16
   5   3   6    7.45    1.30
   4   3   7    8.43    1.36
   3   3   8    4.01    1.17
   2   3   9    8.94    1.54
   1   3  10   19.14    2.00
   0   3  11    6.90    1.54
  -1   3  12    3.07    1.56
  -2   3  13    3.63    1.72
  10   2   2    0.43    1.35
   9   2   3   -1.56    1.20
   8   2   4    1.47    1.23
   8   2   4    4.94    1.16
   7   2   5    4.46    1.18
   6   2   6    7.69    1.33
   5   2   7    3.81    1.12
   4   2   8    2.25    1.12
   3   2   9    5.79    1.34
   2   2  10   24.46    2.31
   1   2  11    1.18    1.32
   0   2  12   -1.39    1.36
  -1   2  13    4.06    1.67
  -2   2  14   14.50    2.29
  10   1   3   -0.95    1.42
   9   1   4   -0.40    1.38
   8   1   5   -1.13    1.29
   7   1   6   -0.23    1.24
   7   1   6    2.22    1.11
   6   1   7    0.83    1.18
   6   1   7    2.59    1.13
   5   1   8   -0.53    1.04
   4   1   9    4.98    1.34
   3   1  10   18.22    2.01
   2   1  11    1.24    1.40
   1   1  12    0.59    1.44
   0   1  13    0.32    1.64
  -1   1  14   30.68    3.05
   9   0   5   -1.88    1.48
   8   0   6    0.44    1.49
   7   0   7    1.36    1.38
   6   0   8    2.43    1.16
   6   0   8   -0.23    1.34
   5   0   9    4.23    1.27
   4   0  10   24.22    2.26
   3   0  11    3.05    1.44
   2   0  12   -0.84    1.45
   1   0  13   -0.23    1.64
   0   0  14   39.42    3.25
  -1   0  15   -0.02    1.66
   9  -1   6   -1.42    1.64
   8  -1   7    0.44    1.64
   7  -1   8    0.27    1.55
   6  -1   9    2.24    1.61
   6  -1   9    2.92    1.23
   5  -1  10   14.81    2.04
   5  -1  10   10.29    1.68
   4  -1  11    2.69    1.44
   4  -1  11    4.29    1.43
   3  -1  12    1.65    1.34
   3  -1  12    3.26    1.63
   2  -1  13    3.53    1.88
   1  -1  14   22.51    2.66
   0  -1  15    1.21    1.80
   8  -2   8    0.82    1.83
   7  -2   9    1.23    1.80
   6  -2  10    3.07    1.81
   6  -2  10    3.99    1.39
   5  -2  11    5.77    1.79
   5  -2  11    1.03    1.34
   4  -2  12    0.62    1.46
   4  -2  12   -0.62    1.43
   3  -2  13    3.38    1.92
   3  -2  13    1.92    1.55
   2  -2  14    8.68    2.07
   2  -2  14   14.72    2.06
   4   9   2    1.68    1.43
   3   9   3    3.28    1.50
   2   9   4    1.05    1.48
  -1  -9  -5   -0.05    1.26
   6   8   1   -0.28    1.20
   5   8   2    4.34    1.40
   4   8   3    1.81    1.37
   3   8   4    3.53    1.49
   2   8   5    0.23    1.35
  -1  -8  -6   -0.82    1.09
   1   8   6    1.17    1.41
   0  -8  -7    0.61    1.15
   0   8   7    1.81    1.53
   7   7   1    0.29    1.20
   6   7   2    3.84    1.37
   5   7   3    0.20    1.18
   4   7   4    2.55    1.31
   3   7   5    2.04    1.34
   2   7   6    2.08    1.35
   1   7   7    4.41    1.55
   0  -7  -8    0.22    1.17
   0   7   8    2.08    1.52
   1  -7  -9    0.34    1.18
  -1   7   9    1.47    1.57
   8   6   1   -0.66    1.18
   7   6   2    4.93    1.37
   6   6   3    1.12    1.25
   5   6   4    4.18    1.32
   4   6   5    0.69    1.17
   3   6   6    2.04    1.28
   2   6   7    1.47    1.34
   1   6   8    4.54    1.49
   0   6   9    7.07    1.74
  -1   6  10    2.83    1.66
   8   5   2    4.64    1.32
   7   5   3    2.65    1.18
   6   5   4    5.47    1.36
   5   5   5    4.42    1.30
   4   5   6    4.76    1.36
   3   5   7    1.15    1.23
   2   5   8    2.82    1.34
   1   5   9   13.60    1.84
   0   5  10    2.31    1.46
  -1   5  11    0.52    1.46
   9   4   2    2.08    1.23
   8   4   3    0.86    1.13
   7   4   4    1.90    1.15
   6   4   5    4.97    1.29
   5   4   6    5.88    1.35
   4   4   7    0.49    1.13
   3   4   8    3.34    1.31
   2   4   9    8.76    1.57
   1   4  10    3.66    1.46
   0   4  11    1.34    1.44
  -1   4  12    3.16    1.66
   9   3   3    3.53    1.28
   8   3   4    2.81    1.25
   7   3   5    2.90    1.19
   6   3   6    2.04    1.22
   5   3   7    0.42    1.12
   4   3   8    3.62    1.31
   3   3   9   10.20    1.62
   2   3  10    2.79    1.40
   1   3  11    1.54    1.46
   0   3  12    2.91    1.59
  -1   3  13    5.33    1.71
   9   2   4   -1.56    1.33
   7   2   6    2.95    1.23
   6   2   7    1.91    1.20
   5   2   8    2.19    1.26
   4   2   9    6.61    1.51
   3   2  10    2.84    1.39
   2   2  11    6.01    1.65
   1   2  12    1.15    1.58
   0   2  13   15.16    2.34
   9   1   5   -1.16    1.45
   7   1   7   -1.07    1.32
   7   1   7    3.55    1.28
   6   1   8    1.99    1.24
   5   1   9   11.37    1.69
   4   1  10    3.72    1.44
   3   1  11    3.14    1.46
   2   1  12    1.30    1.61
   1   1  13   26.85    2.91
   0   1  14    1.98    1.93
   8   0   7   -0.33    1.61
   7   0   8   -0.23    1.46
   6   0   9    3.62    1.36
   5   0  10    2.35    1.39
   4   0  11    1.62    1.40
   3   0  12    2.00    1.67
   2   0  13   15.70    2.45
   1   0  14    1.79    1.98
   7  -1   9    1.83    1.75
   6  -1  10    2.19    1.76
   6  -1  10    3.17    1.43
   5  -1  11    3.26    1.52
   4  -1  12    1.99    1.69
   4  -1  12    2.91    1.58
   3  -1  13    5.81    2.06
   4   8   4    2.58    1.51
   3   8   5   -0.45    1.38
   6   7   3    2.22    1.44
   5   7   4   -0.19    1.34
   4   7   5    3.10    1.42
   3   7   6    2.41    1.49
   2   7   7    2.30    1.47
   7   6   3    3.66    1.46
   6   6   4    0.66    1.32
   5   6   5    4.64    1.43
   4   6   6   -0.01    1.32
   3   6   7    2.04    1.33
   2   6   8    3.99    1.56
   1   6   9    2.68    1.50
   7   5   4    0.58    1.27
   6   5   5    2.47    1.32
   5   5   6    1.36    1.29
   4   5   7    0.97    1.32
   3   5   8    1.17    1.34
   2   5   9    2.13    1.54
   1   5  10    2.46    1.49
   8   4   4    1.67    1.29
   7   4   5    1.37    1.24
   6   4   6    1.13    1.27
   5   4   7    2.47    1.37
   4   4   8    1.35    1.38
   3   4   9    4.05    1.50
   2   4  10   -1.06    1.43
   1   4  11    3.61    1.60
   8   3   5    1.28    1.24
   7   3   6    2.43    1.28
   6   3   7    2.21    1.30
   5   3   8    2.23    1.41
   4   3   9    4.56    1.52
   3   3  10    2.70    1.51
   2   3  11    3.53    1.64
   1   3  12    7.08    1.84
   7   2   7    2.25    1.33
   6   2   8    4.68    1.55
   5   2   9    2.81    1.44
   4   2  10   -0.22    1.38
   3   2  11    2.32    1.56
   2   2  12   13.63    2.21
   6   1   9    2.56    1.41
   5   1  10    3.15    1.55
   4   1  11    2.94    1.64
   3   1  12    4.93    1.79
   0   0   0    0.00    0.00
;
_shelx_hkl_checksum              1269
loop_
_space_group_symop_operation_xyz
'x, y, z'
'-y, x+1/2, z+1/4'
'-x+1/2, -y+1/2, z+1/2'
'y+1/2, -x, z+3/4'
'x, -y+1/2, -z+1/4'
'y+1/2, x+1/2, -z+1/2'
'-x+1/2, y, -z+3/4'
'-y, -x, -z'
'x+1/2, y+1/2, z+1/2'
'-y+1/2, x+1, z+3/4'
'-x+1, -y+1, z+1'
'y+1, -x+1/2, z+5/4'
'x+1/2, -y+1, -z+3/4'
'y+1, x+1, -z+1'
'-x+1, y+1/2, -z+5/4'
'-y+1/2, -x+1/2, -z+1/2'
loop_
_atom_site_label
_atom_site_type_symbol
_atom_site_fract_x
_atom_site_fract_y
_atom_site_fract_z
_atom_site_U_iso_or_equiv
_atom_site_adp_type
_atom_site_occupancy
_atom_site_site_symmetry_order
_atom_site_calc_flag
_atom_site_refinement_flags_posn
_atom_site_refinement_flags_adp
_atom_site_refinement_flags_occupancy
_atom_site_disorder_assembly
_atom_site_disorder_group
C5 C 0.739(10) 0.767(10) 0.064(5) 0.096(19) Uani 0.25 1 d . U P A -1
C4 C 0.683(7) 0.724(15) 0.110(4) 0.10(3) Uani 0.25 1 d . . P A -1
H4A H 0.7286 0.6362 0.1221 0.152 Uiso 0.25 1 calc R U P A -1
H4B H 0.5824 0.7059 0.1020 0.152 Uiso 0.25 1 calc R U P A -1
H4C H 0.6922 0.7950 0.1409 0.152 Uiso 0.25 1 calc R U P A -1
N3 N 0.781(6) 0.780(6) 0.018(2) 0.076(15) Uani 0.25 1 d . U P A -1
Cu1 Cu 0.2500 0.78923(15) 0.8750 0.0328(5) Uani 1 2 d S T P . .
N1 N 0.1623(9) 0.6769(9) 0.9409(3) 0.039(2) Uani 1 1 d . . . . .
N2 N 0.0808(8) 0.5907(8) 1.0911(3) 0.0337(19) Uani 1 1 d . . . . .
C3 C 0.1118(11) 0.6257(10) 0.9827(4) 0.036(2) Uani 1 1 d . . . . .
C2 C 0.0506(9) 0.5555(9) 1.0326(3) 0.029(2) Uani 1 1 d . . . . .
C1 C 0.0000 0.5000 1.1227(5) 0.033(3) Uani 1 2 d S T P . .
H1 H 0.0000 0.5000 1.1648 0.039 Uiso 1 2 calc R U P . .
loop_
_atom_site_aniso_label
_atom_site_aniso_U_11
_atom_site_aniso_U_22
_atom_site_aniso_U_33
_atom_site_aniso_U_23
_atom_site_aniso_U_13
_atom_site_aniso_U_12
C5 0.096(19) 0.096(19) 0.097(19) 0.0000(13) 0.0000(13) 0.0001(13)
C4 0.05(3) 0.15(10) 0.10(8) -0.01(6) -0.01(3) 0.03(5)
N3 0.076(15) 0.076(15) 0.076(15) 0.000(3) 0.000(3) 0.000(3)
Cu1 0.0382(9) 0.0386(9) 0.0217(7) 0.000 0.0001(5) 0.000
N1 0.046(5) 0.047(5) 0.025(3) 0.004(3) 0.002(3) -0.007(4)
N2 0.041(5) 0.039(5) 0.022(3) -0.001(3) -0.001(3) -0.007(3)
C3 0.047(6) 0.041(5) 0.020(3) -0.004(3) -0.003(3) -0.004(4)
C2 0.038(5) 0.030(5) 0.019(3) -0.001(3) -0.001(3) 0.000(4)
C1 0.042(6) 0.035(7) 0.022(5) 0.000 0.000 -0.007(5)
loop_
_atom_type_symbol
_atom_type_description
_atom_type_scat_dispersion_real
_atom_type_scat_dispersion_imag
_atom_type_scat_source
C C 0.0033 0.0016 'International Tables Vol C Tables 4.2.6.8 and 6.1.1.4'
H H 0.0000 0.0000 'International Tables Vol C Tables 4.2.6.8 and 6.1.1.4'
Cu Cu 0.3201 1.2651 'International Tables Vol C Tables 4.2.6.8 and 6.1.1.4'
N N 0.0061 0.0033 'International Tables Vol C Tables 4.2.6.8 and 6.1.1.4'
loop_
_geom_angle_atom_site_label_1
_geom_angle_atom_site_label_2
_geom_angle_atom_site_label_3
_geom_angle
_geom_angle_site_symmetry_1
_geom_angle_site_symmetry_3
C4 C5 N3 165(10) . .
C5 C4 H4A 109.5 . .
C5 C4 H4B 109.5 . .
H4A C4 H4B 109.5 . .
C5 C4 H4C 109.5 . .
H4A C4 H4C 109.5 . .
H4B C4 H4C 109.5 . .
N1 Cu1 N1 115.9(5) 7_556 .
N1 Cu1 N2 106.5(3) 7_556 8_667
N1 Cu1 N2 109.9(3) . 8_667
N1 Cu1 N2 109.9(3) 7_556 4_464
N1 Cu1 N2 106.5(3) . 4_464
N2 Cu1 N2 107.9(4) 8_667 4_464
C3 N1 Cu1 172.4(8) . .
C1 N2 C2 103.3(8) . .
C1 N2 Cu1 126.8(6) . 2_655
C2 N2 Cu1 129.9(6) . 2_655
N1 C3 C2 177.0(10) . .
N2 C2 C2 108.5(5) . 11_454
N2 C2 C3 123.5(8) . .
C2 C2 C3 128.1(5) 11_454 .
N2 C1 N2 116.5(10) 11_454 .
N2 C1 H1 121.8 11_454 .
N2 C1 H1 121.8 . .
loop_
_geom_bond_atom_site_label_1
_geom_bond_atom_site_label_2
_geom_bond_distance
_geom_bond_site_symmetry_2
C5 C4 1.20(15) .
C5 N3 1.08(10) .
C4 H4A 0.9600 .
C4 H4B 0.9600 .
C4 H4C 0.9600 .
Cu1 N1 1.966(8) 7_556
Cu1 N1 1.966(8) .
Cu1 N2 2.050(8) 8_667
Cu1 N2 2.050(8) 4_464
N1 C3 1.139(11) .
N2 C1 1.326(9) .
N2 C2 1.360(10) .
N2 Cu1 2.050(8) 2_655
C3 C2 1.401(11) .
C2 C2 1.394(18) 11_454
C1 N2 1.326(9) 11_454
C1 H1 0.9300 .
loop_
_geom_torsion_atom_site_label_1
_geom_torsion_atom_site_label_2
_geom_torsion_atom_site_label_3
_geom_torsion_atom_site_label_4
_geom_torsion
_geom_torsion_site_symmetry_1
_geom_torsion_site_symmetry_4
C1 N2 C2 C2 0.9(11) . 11_454
Cu1 N2 C2 C2 -176.5(7) 2_655 11_454
C1 N2 C2 C3 179.4(8) . .
Cu1 N2 C2 C3 2.1(13) 2_655 .
C2 N2 C1 N2 -0.3(4) . 11_454
Cu1 N2 C1 N2 177.1(7) 2_655 11_454
