data_image0
_chemical_formula_structural       In8O8Zn8In8Zn8In200S328
_chemical_formula_sum              "In216 O8 Zn16 S328"
_cell_length_a       32.738
_cell_length_b       32.736
_cell_length_c       27.371
_cell_angle_alpha    90.0
_cell_angle_beta     119.826
_cell_angle_gamma    90.0

_space_group_name_H-M_alt    "P 1"
_space_group_IT_number       1

loop_
  _space_group_symop_operation_xyz
  'x, y, z'

loop_
  _atom_site_type_symbol
  _atom_site_label
  _atom_site_symmetry_multiplicity
  _atom_site_fract_x
  _atom_site_fract_y
  _atom_site_fract_z
  _atom_site_occupancy
  In  In1       1.0  0.8283299999999999  0.43781  0.03799999999999981  1.0000
  In  In2       1.0  0.1716700000000001  0.43781  0.46200000000000013  1.0000
  In  In3       1.0  0.32832999999999984  0.93781  0.03799999999999981  1.0000
  In  In4       1.0  0.6716700000000002  0.93781  0.46200000000000013  1.0000
  In  In5       1.0  0.17167000000000007  0.56219  0.9620000000000001  1.0000
  In  In6       1.0  0.82833  0.56219  0.5379999999999998  1.0000
  In  In7       1.0  0.6716700000000001  0.06219000000000003  0.9620000000000001  1.0000
  In  In8       1.0  0.32832999999999984  0.06219000000000003  0.5379999999999998  1.0000
  O   O1        1.0  0.8701  0.4405  0.9333999999999999  1.0000
  O   O2        1.0  0.12990000000000002  0.4405  0.5666000000000001  1.0000
  O   O3        1.0  0.37009999999999993  0.9405  0.9333999999999999  1.0000
  O   O4        1.0  0.6299  0.9405  0.5666000000000001  1.0000
  O   O5        1.0  0.12990000000000002  0.5595  0.0666000000000001  1.0000
  O   O6        1.0  0.8701  0.5595  0.43339999999999973  1.0000
  O   O7        1.0  0.6299  0.0595  0.0666000000000001  1.0000
  O   O8        1.0  0.37009999999999993  0.0595  0.43339999999999973  1.0000
  Zn  Zn1       1.0  0.43423  0.60432  0.69209  1.0000
  Zn  Zn2       1.0  0.56577  0.60432  0.80791  1.0000
  Zn  Zn3       1.0  0.93423  0.10431999999999997  0.69209  1.0000
  Zn  Zn4       1.0  0.06577000000000002  0.10431999999999997  0.80791  1.0000
  Zn  Zn5       1.0  0.56577  0.39568000000000003  0.30790999999999996  1.0000
  Zn  Zn6       1.0  0.43423  0.39568000000000003  0.19208999999999987  1.0000
  Zn  Zn7       1.0  0.06576999999999998  0.8956800000000001  0.30790999999999996  1.0000
  Zn  Zn8       1.0  0.93423  0.8956800000000001  0.19208999999999987  1.0000
  In  In9       1.0  0.6956  0.4368800000000001  0.9214699999999999  1.0000
  In  In10      1.0  0.3044  0.4368800000000001  0.5785300000000001  1.0000
  In  In11      1.0  0.1956  0.93688  0.9214699999999999  1.0000
  In  In12      1.0  0.8044  0.93688  0.5785300000000001  1.0000
  In  In13      1.0  0.3044  0.5631200000000001  0.0785300000000001  1.0000
  In  In14      1.0  0.6956  0.5631200000000001  0.42146999999999973  1.0000
  In  In15      1.0  0.8044  0.06311999999999995  0.0785300000000001  1.0000
  In  In16      1.0  0.1956  0.06311999999999995  0.42146999999999973  1.0000
  Zn  Zn9       1.0  0.4827099999999999  0.6873500000000002  0.8080299999999998  1.0000
  Zn  Zn10      1.0  0.5172900000000001  0.6873500000000002  0.69197  1.0000
  Zn  Zn11      1.0  0.98271  0.18735000000000013  0.8080299999999998  1.0000
  Zn  Zn12      1.0  0.017290000000000028  0.18735000000000013  0.69197  1.0000
  Zn  Zn13      1.0  0.5172900000000001  0.3126499999999999  0.19197000000000006  1.0000
  Zn  Zn14      1.0  0.4827099999999999  0.3126499999999999  0.30803  1.0000
  Zn  Zn15      1.0  0.017290000000000083  0.8126499999999999  0.19197000000000006  1.0000
  Zn  Zn16      1.0  0.98271  0.8126499999999999  0.30803  1.0000
  In  In17      1.0  0.78072  0.52228  0.92156  1.0000
  In  In18      1.0  0.21928000000000003  0.52228  0.57844  1.0000
  In  In19      1.0  0.2807200000000001  0.02227999999999986  0.92156  1.0000
  In  In20      1.0  0.71928  0.02227999999999986  0.57844  1.0000
  In  In21      1.0  0.21928000000000003  0.47772000000000003  0.07843999999999995  1.0000
  In  In22      1.0  0.78072  0.47772000000000003  0.42155999999999993  1.0000
  In  In23      1.0  0.71928  0.9777200000000001  0.07843999999999995  1.0000
  In  In24      1.0  0.2807200000000001  0.9777200000000001  0.42155999999999993  1.0000
  In  In25      1.0  0.74544  0.52127  0.039649999999999956  1.0000
  In  In26      1.0  0.25456000000000006  0.52127  0.46035  1.0000
  In  In27      1.0  0.24543999999999988  0.021269999999999904  0.039649999999999956  1.0000
  In  In28      1.0  0.75456  0.021269999999999904  0.46035  1.0000
  In  In29      1.0  0.25456  0.47873  0.9603499999999999  1.0000
  In  In30      1.0  0.74544  0.47873  0.53965  1.0000
  In  In31      1.0  0.75456  0.9787300000000001  0.9603499999999999  1.0000
  In  In32      1.0  0.24543999999999988  0.9787300000000001  0.53965  1.0000
  In  In33      1.0  0.66168  0.6044  0.038310000000000066  1.0000
  In  In34      1.0  0.33832  0.6044  0.4616899999999999  1.0000
  In  In35      1.0  0.16168000000000007  0.10440000000000005  0.038310000000000066  1.0000
  In  In36      1.0  0.8383200000000001  0.10440000000000005  0.4616899999999999  1.0000
  In  In37      1.0  0.33832  0.39559999999999995  0.9616899999999998  1.0000
  In  In38      1.0  0.66168  0.39559999999999995  0.5383100000000001  1.0000
  In  In39      1.0  0.8383200000000001  0.8956  0.9616899999999998  1.0000
  In  In40      1.0  0.16168000000000007  0.8956  0.5383100000000001  1.0000
  In  In41      1.0  0.5650300000000003  0.4367800000000001  0.8069199999999999  1.0000
  In  In42      1.0  0.4349699999999999  0.4367800000000001  0.6930800000000001  1.0000
  In  In43      1.0  0.06503000000000014  0.9367800000000001  0.8069199999999999  1.0000
  In  In44      1.0  0.93497  0.9367800000000001  0.6930800000000001  1.0000
  In  In45      1.0  0.43496999999999986  0.56322  0.19308000000000014  1.0000
  In  In46      1.0  0.5650300000000003  0.56322  0.3069199999999998  1.0000
  In  In47      1.0  0.9349699999999999  0.06321999999999994  0.19308000000000014  1.0000
  In  In48      1.0  0.06503000000000013  0.06321999999999994  0.3069199999999998  1.0000
  In  In49      1.0  0.7330599999999999  0.60472  0.8068099999999998  1.0000
  In  In50      1.0  0.26694000000000007  0.60472  0.69319  1.0000
  In  In51      1.0  0.23306  0.10471999999999992  0.8068099999999998  1.0000
  In  In52      1.0  0.7669400000000001  0.10471999999999992  0.69319  1.0000
  In  In53      1.0  0.26694000000000007  0.39527999999999996  0.19319000000000008  1.0000
  In  In54      1.0  0.7330599999999999  0.39527999999999996  0.30680999999999997  1.0000
  In  In55      1.0  0.7669400000000001  0.89528  0.19319000000000008  1.0000
  In  In56      1.0  0.23306000000000002  0.89528  0.30680999999999997  1.0000
  In  In57      1.0  0.3622700000000001  0.7698200000000002  0.92229  1.0000
  In  In58      1.0  0.6377299999999999  0.7698200000000002  0.5777099999999998  1.0000
  In  In59      1.0  0.8622700000000001  0.26982000000000017  0.92229  1.0000
  In  In60      1.0  0.13772999999999996  0.26982000000000017  0.5777099999999998  1.0000
  In  In61      1.0  0.63773  0.23017999999999994  0.07770999999999995  1.0000
  In  In62      1.0  0.3622700000000001  0.23017999999999994  0.42229000000000005  1.0000
  In  In63      1.0  0.13773  0.7301799999999999  0.07770999999999995  1.0000
  In  In64      1.0  0.8622700000000001  0.7301799999999999  0.42229000000000005  1.0000
  In  In65      1.0  0.31444  0.68722  0.80731  1.0000
  In  In66      1.0  0.68556  0.68722  0.69269  1.0000
  In  In67      1.0  0.81444  0.18721999999999994  0.80731  1.0000
  In  In68      1.0  0.18556  0.18721999999999994  0.69269  1.0000
  In  In69      1.0  0.68556  0.31277999999999995  0.19269000000000003  1.0000
  In  In70      1.0  0.31443999999999994  0.31277999999999995  0.3073099999999999  1.0000
  In  In71      1.0  0.18556  0.81278  0.19269000000000003  1.0000
  In  In72      1.0  0.81444  0.81278  0.3073099999999999  1.0000
  In  In73      1.0  0.9119399999999999  0.3541600000000001  0.03841999999999967  1.0000
  In  In74      1.0  0.0880600000000001  0.3541600000000001  0.46158000000000027  1.0000
  In  In75      1.0  0.41194000000000003  0.85416  0.03841999999999967  1.0000
  In  In76      1.0  0.5880600000000001  0.85416  0.46158000000000027  1.0000
  In  In77      1.0  0.08806000000000008  0.6458400000000001  0.9615800000000002  1.0000
  In  In78      1.0  0.9119399999999999  0.6458400000000001  0.5384199999999997  1.0000
  In  In79      1.0  0.5880600000000001  0.14584  0.9615800000000002  1.0000
  In  In80      1.0  0.41194000000000003  0.14584  0.5384199999999997  1.0000
  In  In81      1.0  0.9962499999999997  0.2704900000000001  0.03990999999999966  1.0000
  In  In82      1.0  0.0037500000000002215  0.2704900000000001  0.4600900000000003  1.0000
  In  In83      1.0  0.49624999999999986  0.7704900000000001  0.03990999999999966  1.0000
  In  In84      1.0  0.5037500000000003  0.7704900000000001  0.4600900000000003  1.0000
  In  In85      1.0  0.0037500000000002215  0.72951  0.9600900000000002  1.0000
  In  In86      1.0  0.9962499999999997  0.72951  0.5399099999999997  1.0000
  In  In87      1.0  0.5037500000000003  0.22950999999999996  0.9600900000000002  1.0000
  In  In88      1.0  0.49624999999999986  0.22950999999999996  0.5399099999999997  1.0000
  In  In89      1.0  0.9482799999999999  0.35589  0.9227199999999998  1.0000
  In  In90      1.0  0.05172000000000006  0.35589  0.57728  1.0000
  In  In91      1.0  0.44828  0.85589  0.9227199999999998  1.0000
  In  In92      1.0  0.5517200000000002  0.85589  0.57728  1.0000
  In  In93      1.0  0.05172000000000011  0.6441100000000001  0.07728000000000013  1.0000
  In  In94      1.0  0.9482799999999999  0.6441100000000001  0.42271999999999993  1.0000
  In  In95      1.0  0.5517200000000002  0.14411000000000002  0.07728000000000013  1.0000
  In  In96      1.0  0.44828  0.14411000000000002  0.42271999999999993  1.0000
  In  In97      1.0  0.9822  0.35567  0.80704  1.0000
  In  In98      1.0  0.017800000000000052  0.35567  0.69296  1.0000
  In  In99      1.0  0.48219999999999996  0.8556699999999999  0.80704  1.0000
  In  In100     1.0  0.5178  0.8556699999999999  0.69296  1.0000
  In  In101     1.0  0.017800000000000038  0.6443300000000002  0.19296  1.0000
  In  In102     1.0  0.9822  0.6443300000000002  0.30704  1.0000
  In  In103     1.0  0.5178  0.14433  0.19296  1.0000
  In  In104     1.0  0.48219999999999996  0.14433  0.30704  1.0000
  In  In105     1.0  0.07889000000000013  0.18724  0.03896999999999995  1.0000
  In  In106     1.0  0.92111  0.18724  0.46103  1.0000
  In  In107     1.0  0.5788900000000001  0.68724  0.03896999999999995  1.0000
  In  In108     1.0  0.4211099999999998  0.68724  0.46103  1.0000
  In  In109     1.0  0.92111  0.81276  0.9610299999999999  1.0000
  In  In110     1.0  0.07889000000000013  0.81276  0.53897  1.0000
  In  In111     1.0  0.4211099999999998  0.31276000000000004  0.9610299999999999  1.0000
  In  In112     1.0  0.5788900000000001  0.31276000000000004  0.53897  1.0000
  In  In113     1.0  0.5179400000000002  0.52087  0.69196  0.8750
  In  In114     1.0  0.48205999999999993  0.52087  0.80804  0.8750
  In  In115     1.0  0.017940000000000057  0.020869999999999944  0.69196  0.8750
  In  In116     1.0  0.9820599999999999  0.020869999999999944  0.80804  0.8750
  In  In117     1.0  0.48206  0.47913  0.30804  0.8750
  In  In118     1.0  0.5179400000000002  0.47913  0.19195999999999988  0.8750
  In  In119     1.0  0.9820599999999999  0.97913  0.30804  0.8750
  In  In120     1.0  0.017940000000000057  0.97913  0.19195999999999988  0.8750
  In  In121     1.0  0.6138499999999999  0.68805  0.9208199999999997  0.8750
  In  In122     1.0  0.38615000000000005  0.68805  0.57918  0.8750
  In  In123     1.0  0.11384999999999974  0.18805000000000005  0.9208199999999997  0.8750
  In  In124     1.0  0.8861500000000001  0.18805000000000005  0.57918  0.8750
  In  In125     1.0  0.3861500000000001  0.31194999999999995  0.07918000000000013  0.8750
  In  In126     1.0  0.6138499999999999  0.31194999999999995  0.4208199999999999  0.8750
  In  In127     1.0  0.8861500000000001  0.81195  0.07918000000000013  0.8750
  In  In128     1.0  0.11384999999999977  0.81195  0.4208199999999999  0.8750
  In  In129     1.0  0.64712  0.52223  0.8057199999999998  0.8750
  In  In130     1.0  0.35287999999999997  0.52223  0.69428  0.8750
  In  In131     1.0  0.14712000000000008  0.022229999999999972  0.8057199999999998  0.8750
  In  In132     1.0  0.85288  0.022229999999999972  0.69428  0.8750
  In  In133     1.0  0.35288  0.47777000000000003  0.19428000000000012  0.8750
  In  In134     1.0  0.64712  0.47777000000000003  0.30571999999999994  0.8750
  In  In135     1.0  0.85288  0.9777700000000001  0.19428000000000012  0.8750
  In  In136     1.0  0.1471200000000001  0.9777700000000001  0.30571999999999994  0.8750
  In  In137     1.0  0.030640000000000014  0.26991  0.9210399999999999  0.8750
  In  In138     1.0  0.96936  0.26991  0.5789600000000001  0.8750
  In  In139     1.0  0.53064  0.76991  0.9210399999999999  0.8750
  In  In140     1.0  0.46936  0.76991  0.5789600000000001  0.8750
  In  In141     1.0  0.96936  0.73009  0.07896000000000013  0.8750
  In  In142     1.0  0.03063999999999996  0.73009  0.4210399999999998  0.8750
  In  In143     1.0  0.46936  0.23009000000000002  0.07896000000000013  0.8750
  In  In144     1.0  0.53064  0.23009000000000002  0.4210399999999998  0.8750
  In  In145     1.0  0.69551  0.60539  0.92096  0.8750
  In  In146     1.0  0.30449000000000004  0.60539  0.57904  0.8750
  In  In147     1.0  0.19551000000000004  0.10538999999999987  0.92096  0.8750
  In  In148     1.0  0.80449  0.10538999999999987  0.57904  0.8750
  In  In149     1.0  0.30449000000000004  0.39461  0.07904  0.8750
  In  In150     1.0  0.69551  0.39461  0.42095999999999995  0.8750
  In  In151     1.0  0.80449  0.8946100000000001  0.07904  0.8750
  In  In152     1.0  0.19551000000000004  0.8946100000000001  0.42095999999999995  0.8750
  In  In153     1.0  0.61169  0.52256  0.92107  0.8750
  In  In154     1.0  0.3883100000000001  0.52256  0.57893  0.8750
  In  In155     1.0  0.11168999999999984  0.022559999999999913  0.92107  0.8750
  In  In156     1.0  0.88831  0.022559999999999913  0.57893  0.8750
  In  In157     1.0  0.3883100000000001  0.47744  0.07892999999999993  0.8750
  In  In158     1.0  0.6116899999999998  0.47744  0.42107  0.8750
  In  In159     1.0  0.88831  0.97744  0.07892999999999993  0.8750
  In  In160     1.0  0.11168999999999983  0.97744  0.42107  0.8750
  In  In161     1.0  0.64949  0.68821  0.8086099999999999  0.8750
  In  In162     1.0  0.35051000000000004  0.68821  0.6913900000000001  0.8750
  In  In163     1.0  0.14949000000000012  0.18821  0.8086099999999999  0.8750
  In  In164     1.0  0.8505100000000001  0.18821  0.6913900000000001  0.8750
  In  In165     1.0  0.35051000000000004  0.31179  0.19139000000000006  0.8750
  In  In166     1.0  0.64949  0.31179  0.3086099999999998  0.8750
  In  In167     1.0  0.8505100000000001  0.8117900000000001  0.19139000000000006  0.8750
  In  In168     1.0  0.1494900000000001  0.8117900000000001  0.3086099999999998  0.8750
  In  In169     1.0  0.39929  0.7705300000000003  0.80599  0.8750
  In  In170     1.0  0.6007100000000001  0.7705300000000003  0.69401  0.8750
  In  In171     1.0  0.89929  0.27053000000000016  0.80599  0.8750
  In  In172     1.0  0.10071000000000005  0.27053000000000016  0.69401  0.8750
  In  In173     1.0  0.60071  0.22946999999999984  0.19401  0.8750
  In  In174     1.0  0.39929  0.22946999999999984  0.30599  0.8750
  In  In175     1.0  0.10071000000000001  0.7294699999999998  0.19401  0.8750
  In  In176     1.0  0.89929  0.7294699999999998  0.30599  0.8750
  In  In177     1.0  0.565  0.7750000000000002  0.8129999999999998  0.1250
  In  In178     1.0  0.4350000000000001  0.7750000000000002  0.687  0.1250
  In  In179     1.0  0.06499999999999993  0.27500000000000013  0.8129999999999998  0.1250
  In  In180     1.0  0.9350000000000002  0.27500000000000013  0.687  0.1250
  In  In181     1.0  0.4350000000000001  0.2249999999999999  0.18700000000000014  0.1250
  In  In182     1.0  0.565  0.2249999999999999  0.3129999999999997  0.1250
  In  In183     1.0  0.9350000000000002  0.7249999999999999  0.18700000000000014  0.1250
  In  In184     1.0  0.06499999999999993  0.7249999999999999  0.3129999999999997  0.1250
  In  In185     1.0  0.5295700000000002  0.60334  0.92154  0.8750
  In  In186     1.0  0.47042999999999996  0.60334  0.57846  0.8750
  In  In187     1.0  0.02957000000000009  0.10333999999999999  0.92154  0.8750
  In  In188     1.0  0.9704299999999999  0.10333999999999999  0.57846  0.8750
  In  In189     1.0  0.47042999999999996  0.39666  0.07845999999999997  0.8750
  In  In190     1.0  0.5295700000000002  0.39666  0.42153999999999997  0.8750
  In  In191     1.0  0.9704299999999998  0.8966600000000001  0.07845999999999997  0.8750
  In  In192     1.0  0.02957000000000006  0.8966600000000001  0.42153999999999997  0.8750
  In  In193     1.0  0.44723  0.68646  0.9212499999999998  0.8750
  In  In194     1.0  0.5527700000000001  0.68646  0.57875  0.8750
  In  In195     1.0  0.94723  0.18645999999999988  0.9212499999999998  0.8750
  In  In196     1.0  0.05276999999999996  0.18645999999999988  0.57875  0.8750
  In  In197     1.0  0.5527700000000001  0.31354000000000004  0.0787500000000001  0.8750
  In  In198     1.0  0.44723000000000007  0.31354000000000004  0.4212499999999999  0.8750
  In  In199     1.0  0.05276999999999999  0.81354  0.0787500000000001  0.8750
  In  In200     1.0  0.94723  0.81354  0.4212499999999999  0.8750
  In  In201     1.0  0.6009000000000002  0.6036500000000002  0.69179  0.8750
  In  In202     1.0  0.3991  0.6036500000000002  0.80821  0.8750
  In  In203     1.0  0.10090000000000023  0.10365000000000003  0.69179  0.8750
  In  In204     1.0  0.8991  0.10365000000000003  0.80821  0.8750
  In  In205     1.0  0.39909999999999995  0.3963499999999999  0.30821  0.8750
  In  In206     1.0  0.6009000000000001  0.3963499999999999  0.1917900000000001  0.8750
  In  In207     1.0  0.8990999999999999  0.8963499999999999  0.30821  0.8750
  In  In208     1.0  0.1009000000000002  0.8963499999999999  0.1917900000000001  0.8750
  In  In209     1.0  0.5669  0.7703  0.8075999999999998  0.8750
  In  In210     1.0  0.4331  0.7703  0.6924  0.8750
  In  In211     1.0  0.06689999999999993  0.2703  0.8075999999999998  0.8750
  In  In212     1.0  0.9331  0.2703  0.6924  0.8750
  In  In213     1.0  0.43310000000000004  0.22970000000000004  0.1924000000000001  0.8750
  In  In214     1.0  0.5669  0.22970000000000004  0.3075999999999999  0.8750
  In  In215     1.0  0.9331  0.7297  0.1924000000000001  0.8750
  In  In216     1.0  0.06689999999999999  0.7297  0.3075999999999999  0.8750
  S   S1        1.0  0.5  0.5625  0.7499999999999999  1.0000
  S   S2        1.0  0.0  0.0625  0.7499999999999999  1.0000
  S   S3        1.0  0.5  0.43750000000000006  0.2500000000000001  1.0000
  S   S4        1.0  0.0  0.9375000000000001  0.2500000000000001  1.0000
  S   S5        1.0  0.5  0.7270000000000002  0.7499999999999999  1.0000
  S   S6        1.0  0.0  0.2270000000000001  0.7499999999999999  1.0000
  S   S7        1.0  0.5  0.2729999999999999  0.2500000000000001  1.0000
  S   S8        1.0  0.0  0.7729999999999999  0.2500000000000001  1.0000
  S   S9        1.0  0.38259999999999994  0.6426400000000001  0.8694999999999999  1.0000
  S   S10       1.0  0.6174000000000001  0.6426400000000001  0.6305000000000001  1.0000
  S   S11       1.0  0.8826  0.1426400000000001  0.8694999999999999  1.0000
  S   S12       1.0  0.11740000000000006  0.1426400000000001  0.6305000000000001  1.0000
  S   S13       1.0  0.6174000000000001  0.3573599999999999  0.13050000000000003  1.0000
  S   S14       1.0  0.3825999999999999  0.3573599999999999  0.3694999999999999  1.0000
  S   S15       1.0  0.11740000000000006  0.8573599999999999  0.13050000000000003  1.0000
  S   S16       1.0  0.8826  0.8573599999999999  0.3694999999999999  1.0000
  S   S17       1.0  0.50944  0.64434  0.9779999999999998  1.0000
  S   S18       1.0  0.49056  0.64434  0.5220000000000001  1.0000
  S   S19       1.0  0.00944000000000004  0.14434000000000016  0.9779999999999998  1.0000
  S   S20       1.0  0.9905600000000001  0.14434000000000016  0.5220000000000001  1.0000
  S   S21       1.0  0.49056  0.35566000000000003  0.022000000000000127  1.0000
  S   S22       1.0  0.5094400000000001  0.35566000000000003  0.47799999999999976  1.0000
  S   S23       1.0  0.9905600000000001  0.85566  0.022000000000000127  1.0000
  S   S24       1.0  0.009440000000000122  0.85566  0.47799999999999976  1.0000
  S   S25       1.0  0.46313  0.5601700000000002  0.8653999999999998  1.0000
  S   S26       1.0  0.5368700000000001  0.5601700000000002  0.6346000000000002  1.0000
  S   S27       1.0  0.96313  0.06017000000000006  0.8653999999999998  1.0000
  S   S28       1.0  0.036870000000000035  0.06017000000000006  0.6346000000000002  1.0000
  S   S29       1.0  0.5368700000000001  0.43982999999999994  0.13460000000000014  1.0000
  S   S30       1.0  0.46313  0.43982999999999994  0.3653999999999997  1.0000
  S   S31       1.0  0.03687000000000001  0.9398299999999999  0.13460000000000014  1.0000
  S   S32       1.0  0.96313  0.9398299999999999  0.3653999999999997  1.0000
  S   S33       1.0  0.5925099999999999  0.55997  0.9766999999999999  1.0000
  S   S34       1.0  0.40749000000000013  0.55997  0.5233000000000001  1.0000
  S   S35       1.0  0.09250999999999987  0.059969999999999864  0.9766999999999999  1.0000
  S   S36       1.0  0.9074900000000001  0.059969999999999864  0.5233000000000001  1.0000
  S   S37       1.0  0.40749000000000013  0.4400300000000001  0.0233000000000001  1.0000
  S   S38       1.0  0.5925099999999999  0.4400300000000001  0.47669999999999985  1.0000
  S   S39       1.0  0.9074900000000001  0.94003  0.0233000000000001  1.0000
  S   S40       1.0  0.09250999999999984  0.94003  0.47669999999999985  1.0000
  S   S41       1.0  0.54783  0.64686  0.8634  1.0000
  S   S42       1.0  0.45217  0.64686  0.6366  1.0000
  S   S43       1.0  0.04783000000000008  0.14686000000000002  0.8634  1.0000
  S   S44       1.0  0.9521700000000001  0.14686000000000002  0.6366  1.0000
  S   S45       1.0  0.45217  0.35314  0.13660000000000005  1.0000
  S   S46       1.0  0.54783  0.35314  0.3633999999999999  1.0000
  S   S47       1.0  0.9521700000000001  0.85314  0.13660000000000005  1.0000
  S   S48       1.0  0.04783000000000001  0.85314  0.3633999999999999  1.0000
  S   S49       1.0  0.4170399999999999  0.64565  0.7477999999999998  1.0000
  S   S50       1.0  0.58296  0.64565  0.7522  1.0000
  S   S51       1.0  0.9170399999999999  0.14564999999999984  0.7477999999999998  1.0000
  S   S52       1.0  0.08296  0.14564999999999984  0.7522  1.0000
  S   S53       1.0  0.58296  0.35435000000000005  0.25220000000000004  1.0000
  S   S54       1.0  0.41703999999999997  0.35435000000000005  0.2477999999999998  1.0000
  S   S55       1.0  0.08296  0.8543500000000002  0.25220000000000004  1.0000
  S   S56       1.0  0.91704  0.8543500000000002  0.2477999999999998  1.0000
  S   S57       1.0  0.6345  0.7302200000000002  0.8668  1.0000
  S   S58       1.0  0.3655  0.7302200000000002  0.6331999999999999  1.0000
  S   S59       1.0  0.1345000000000001  0.23022000000000012  0.8668  1.0000
  S   S60       1.0  0.8655  0.23022000000000012  0.6331999999999999  1.0000
  S   S61       1.0  0.36550000000000005  0.26977999999999996  0.13319999999999999  1.0000
  S   S62       1.0  0.6345  0.26977999999999996  0.3668  1.0000
  S   S63       1.0  0.8655000000000003  0.7697799999999999  0.13319999999999999  1.0000
  S   S64       1.0  0.1345000000000001  0.7697799999999999  0.3668  1.0000
  S   S65       1.0  0.37022  0.56333  0.6369  1.0000
  S   S66       1.0  0.6297800000000001  0.56333  0.8631  1.0000
  S   S67       1.0  0.87022  0.06333000000000011  0.6369  1.0000
  S   S68       1.0  0.12978  0.06333000000000011  0.8631  1.0000
  S   S69       1.0  0.6297800000000001  0.43667000000000006  0.3630999999999999  1.0000
  S   S70       1.0  0.37022  0.43667000000000006  0.1369  1.0000
  S   S71       1.0  0.12977999999999998  0.9366700000000001  0.3630999999999999  1.0000
  S   S72       1.0  0.87022  0.9366700000000001  0.1369  1.0000
  S   S73       1.0  0.6829999999999999  0.6499  0.9818999999999998  1.0000
  S   S74       1.0  0.31700000000000006  0.6499  0.5181000000000001  1.0000
  S   S75       1.0  0.1829999999999998  0.14990000000000017  0.9818999999999998  1.0000
  S   S76       1.0  0.8170000000000001  0.14990000000000017  0.5181000000000001  1.0000
  S   S77       1.0  0.31700000000000006  0.35009999999999997  0.018100000000000116  1.0000
  S   S78       1.0  0.6829999999999999  0.35009999999999997  0.48189999999999994  1.0000
  S   S79       1.0  0.8170000000000001  0.8501000000000001  0.018100000000000116  1.0000
  S   S80       1.0  0.18299999999999983  0.8501000000000001  0.48189999999999994  1.0000
  S   S81       1.0  0.8973999999999999  0.3956  0.10289999999999976  1.0000
  S   S82       1.0  0.10260000000000012  0.3956  0.3971000000000002  1.0000
  S   S83       1.0  0.3973999999999997  0.8956  0.10289999999999976  1.0000
  S   S84       1.0  0.6026000000000001  0.8956  0.3971000000000002  1.0000
  S   S85       1.0  0.10260000000000011  0.6044  0.8971000000000001  1.0000
  S   S86       1.0  0.8973999999999999  0.6044  0.6028999999999998  1.0000
  S   S87       1.0  0.6026000000000001  0.10439999999999999  0.8971000000000001  1.0000
  S   S88       1.0  0.39739999999999975  0.10439999999999999  0.6028999999999998  1.0000
  S   S89       1.0  0.58435  0.47893  0.747  1.0000
  S   S90       1.0  0.41564999999999996  0.47893  0.753  1.0000
  S   S91       1.0  0.08435000000000016  0.9789300000000001  0.747  1.0000
  S   S92       1.0  0.9156500000000001  0.9789300000000001  0.753  1.0000
  S   S93       1.0  0.41564999999999996  0.5210699999999999  0.25299999999999995  1.0000
  S   S94       1.0  0.58435  0.5210699999999999  0.2469999999999999  1.0000
  S   S95       1.0  0.9156500000000001  0.021069999999999978  0.25299999999999995  1.0000
  S   S96       1.0  0.08435000000000016  0.021069999999999978  0.2469999999999999  1.0000
  S   S97       1.0  0.5469800000000002  0.48056  0.8681  1.0000
  S   S98       1.0  0.45301999999999987  0.48056  0.6318999999999999  1.0000
  S   S99       1.0  0.046980000000000015  0.9805600000000001  0.8681  1.0000
  S   S100      1.0  0.9530199999999999  0.9805600000000001  0.6318999999999999  1.0000
  S   S101      1.0  0.4530199999999999  0.51944  0.13190000000000002  1.0000
  S   S102      1.0  0.5469800000000002  0.51944  0.36810000000000004  1.0000
  S   S103      1.0  0.9530199999999999  0.019440000000000013  0.13190000000000002  1.0000
  S   S104      1.0  0.04697999999999999  0.019440000000000013  0.36810000000000004  1.0000
  S   S105      1.0  0.66552  0.56031  0.7476  1.0000
  S   S106      1.0  0.33448  0.56031  0.7524  1.0000
  S   S107      1.0  0.1655199999999999  0.06030999999999987  0.7476  1.0000
  S   S108      1.0  0.83448  0.06030999999999987  0.7524  1.0000
  S   S109      1.0  0.33448  0.43969  0.2523999999999999  1.0000
  S   S110      1.0  0.66552  0.43969  0.24760000000000004  1.0000
  S   S111      1.0  0.83448  0.93969  0.2523999999999999  1.0000
  S   S112      1.0  0.1655199999999999  0.93969  0.24760000000000004  1.0000
  S   S113      1.0  0.7158999999999999  0.64715  0.8682999999999998  1.0000
  S   S114      1.0  0.28410000000000013  0.64715  0.6317000000000002  1.0000
  S   S115      1.0  0.21589999999999998  0.1471499999999999  0.8682999999999998  1.0000
  S   S116      1.0  0.7841000000000001  0.1471499999999999  0.6317000000000002  1.0000
  S   S117      1.0  0.28410000000000013  0.35285  0.13170000000000015  1.0000
  S   S118      1.0  0.7158999999999999  0.35285  0.3682999999999998  1.0000
  S   S119      1.0  0.7841000000000001  0.85285  0.13170000000000015  1.0000
  S   S120      1.0  0.21589999999999998  0.85285  0.3682999999999998  1.0000
  S   S121      1.0  0.8462  0.4784  0.9763999999999998  1.0000
  S   S122      1.0  0.1538  0.4784  0.5236  1.0000
  S   S123      1.0  0.3462  0.9783999999999999  0.9763999999999998  1.0000
  S   S124      1.0  0.6538  0.9783999999999999  0.5236  1.0000
  S   S125      1.0  0.15380000000000005  0.5216000000000001  0.023600000000000062  1.0000
  S   S126      1.0  0.8462  0.5216000000000001  0.47639999999999993  1.0000
  S   S127      1.0  0.6538  0.021600000000000008  0.023600000000000062  1.0000
  S   S128      1.0  0.34620000000000006  0.021600000000000008  0.47639999999999993  1.0000
  S   S129      1.0  0.3774  0.8121  0.8573999999999999  1.0000
  S   S130      1.0  0.6226  0.8121  0.6426000000000001  1.0000
  S   S131      1.0  0.8774  0.31210000000000004  0.8573999999999999  1.0000
  S   S132      1.0  0.12259999999999999  0.31210000000000004  0.6426000000000001  1.0000
  S   S133      1.0  0.6226  0.18789999999999996  0.14260000000000006  1.0000
  S   S134      1.0  0.37739999999999996  0.18789999999999996  0.3573999999999999  1.0000
  S   S135      1.0  0.12259999999999999  0.6879  0.14260000000000006  1.0000
  S   S136      1.0  0.8773999999999998  0.6879  0.3573999999999999  1.0000
  S   S137      1.0  0.76227  0.56722  0.9792  1.0000
  S   S138      1.0  0.23773  0.56722  0.5208  1.0000
  S   S139      1.0  0.26227  0.06721999999999984  0.9792  1.0000
  S   S140      1.0  0.73773  0.06721999999999984  0.5208  1.0000
  S   S141      1.0  0.23773  0.43278000000000005  0.020800000000000037  1.0000
  S   S142      1.0  0.7622699999999999  0.43278000000000005  0.47920000000000007  1.0000
  S   S143      1.0  0.73773  0.93278  0.020800000000000037  1.0000
  S   S144      1.0  0.26227  0.93278  0.47920000000000007  1.0000
  S   S145      1.0  0.4292  0.7235  0.9811  1.0000
  S   S146      1.0  0.5708  0.7235  0.5189  1.0000
  S   S147      1.0  0.9292000000000001  0.22350000000000006  0.9811  1.0000
  S   S148      1.0  0.07079999999999999  0.22350000000000006  0.5189  1.0000
  S   S149      1.0  0.5708  0.27649999999999997  0.018900000000000028  1.0000
  S   S150      1.0  0.42919999999999997  0.27649999999999997  0.4811  1.0000
  S   S151      1.0  0.07079999999999999  0.7765  0.018900000000000028  1.0000
  S   S152      1.0  0.9292000000000001  0.7765  0.4811  1.0000
  S   S153      1.0  0.8124000000000002  0.4791  0.10210000000000008  1.0000
  S   S154      1.0  0.18759999999999988  0.4791  0.3978999999999999  1.0000
  S   S155      1.0  0.3124000000000003  0.9791000000000001  0.10210000000000008  1.0000
  S   S156      1.0  0.6875999999999999  0.9791000000000001  0.3978999999999999  1.0000
  S   S157      1.0  0.18759999999999982  0.5208999999999999  0.8978999999999998  1.0000
  S   S158      1.0  0.8124000000000001  0.5208999999999999  0.6021  1.0000
  S   S159      1.0  0.6875999999999998  0.020899999999999974  0.8978999999999998  1.0000
  S   S160      1.0  0.3124000000000003  0.020899999999999974  0.6021  1.0000
  S   S161      1.0  0.71244  0.47929  0.8586999999999999  1.0000
  S   S162      1.0  0.28756000000000004  0.47929  0.6413000000000001  1.0000
  S   S163      1.0  0.21243999999999993  0.9792900000000001  0.8586999999999999  1.0000
  S   S164      1.0  0.78756  0.9792900000000001  0.6413000000000001  1.0000
  S   S165      1.0  0.28756000000000004  0.52071  0.14130000000000006  1.0000
  S   S166      1.0  0.71244  0.52071  0.3586999999999998  1.0000
  S   S167      1.0  0.78756  0.020710000000000006  0.14130000000000006  1.0000
  S   S168      1.0  0.21243999999999996  0.020710000000000006  0.3586999999999998  1.0000
  S   S169      1.0  0.6298299999999999  0.3917700000000001  0.8640999999999999  1.0000
  S   S170      1.0  0.37017000000000017  0.3917700000000001  0.6359000000000001  1.0000
  S   S171      1.0  0.1298299999999999  0.8917700000000001  0.8640999999999999  1.0000
  S   S172      1.0  0.8701700000000002  0.8917700000000001  0.6359000000000001  1.0000
  S   S173      1.0  0.37017000000000017  0.6082299999999999  0.1359000000000001  1.0000
  S   S174      1.0  0.6298299999999999  0.6082299999999999  0.3640999999999998  1.0000
  S   S175      1.0  0.8701700000000001  0.10822999999999995  0.1359000000000001  1.0000
  S   S176      1.0  0.1298299999999999  0.10822999999999995  0.3640999999999998  1.0000
  S   S177      1.0  0.6756000000000002  0.47741  0.9823  1.0000
  S   S178      1.0  0.3243999999999999  0.47741  0.5176999999999999  1.0000
  S   S179      1.0  0.17560000000000023  0.97741  0.9823  1.0000
  S   S180      1.0  0.8243999999999999  0.97741  0.5176999999999999  1.0000
  S   S181      1.0  0.32439999999999997  0.52259  0.01770000000000005  1.0000
  S   S182      1.0  0.6756000000000002  0.52259  0.48229999999999995  1.0000
  S   S183      1.0  0.8243999999999999  0.02259  0.01770000000000005  1.0000
  S   S184      1.0  0.17560000000000017  0.02259  0.48229999999999995  1.0000
  S   S185      1.0  0.7294  0.5632  0.10230000000000004  1.0000
  S   S186      1.0  0.27059999999999995  0.5632  0.39769999999999994  1.0000
  S   S187      1.0  0.22940000000000005  0.06320000000000014  0.10230000000000004  1.0000
  S   S188      1.0  0.7706000000000001  0.06320000000000014  0.39769999999999994  1.0000
  S   S189      1.0  0.27059999999999995  0.43679999999999997  0.8976999999999999  1.0000
  S   S190      1.0  0.7293999999999999  0.43679999999999997  0.6023  1.0000
  S   S191      1.0  0.7706000000000001  0.9368000000000001  0.8976999999999999  1.0000
  S   S192      1.0  0.22939999999999997  0.9368000000000001  0.6023  1.0000
  S   S193      1.0  0.7617999999999999  0.3929  0.9808999999999998  1.0000
  S   S194      1.0  0.23820000000000005  0.3929  0.5191  1.0000
  S   S195      1.0  0.2618  0.8929000000000001  0.9808999999999998  1.0000
  S   S196      1.0  0.7382000000000001  0.8929000000000001  0.5191  1.0000
  S   S197      1.0  0.2382000000000001  0.6071  0.019100000000000113  1.0000
  S   S198      1.0  0.7617999999999999  0.6071  0.4808999999999999  1.0000
  S   S199      1.0  0.7382000000000001  0.10709999999999997  0.019100000000000113  1.0000
  S   S200      1.0  0.26180000000000003  0.10709999999999997  0.4808999999999999  1.0000
  S   S201      1.0  0.8035000000000001  0.5647  0.8651999999999997  1.0000
  S   S202      1.0  0.1964999999999999  0.5647  0.6348  1.0000
  S   S203      1.0  0.3035000000000001  0.06469999999999998  0.8651999999999997  1.0000
  S   S204      1.0  0.6964999999999998  0.06469999999999998  0.6348  1.0000
  S   S205      1.0  0.19649999999999992  0.4353  0.13480000000000014  1.0000
  S   S206      1.0  0.8035000000000001  0.4353  0.3651999999999997  1.0000
  S   S207      1.0  0.6964999999999999  0.9353  0.13480000000000014  1.0000
  S   S208      1.0  0.30350000000000016  0.9353  0.3651999999999997  1.0000
  S   S209      1.0  0.5  0.3921000000000001  0.7499999999999999  1.0000
  S   S210      1.0  0.0  0.8921000000000001  0.7499999999999999  1.0000
  S   S211      1.0  0.5  0.6079  0.2500000000000001  1.0000
  S   S212      1.0  0.0  0.10789999999999994  0.2500000000000001  1.0000
  S   S213      1.0  0.2446999999999999  0.6467  0.7490999999999998  1.0000
  S   S214      1.0  0.7553000000000001  0.6467  0.7509  1.0000
  S   S215      1.0  0.7446999999999999  0.14670000000000005  0.7490999999999998  1.0000
  S   S216      1.0  0.2553  0.14670000000000005  0.7509  1.0000
  S   S217      1.0  0.7553000000000001  0.35329999999999995  0.2509000000000001  1.0000
  S   S218      1.0  0.24469999999999995  0.35329999999999995  0.24909999999999985  1.0000
  S   S219      1.0  0.2553000000000001  0.8533000000000001  0.2509000000000001  1.0000
  S   S220      1.0  0.7446999999999999  0.8533000000000001  0.24909999999999985  1.0000
  S   S221      1.0  0.3316699999999999  0.7323  0.7468999999999998  1.0000
  S   S222      1.0  0.6683300000000001  0.7323  0.7531  1.0000
  S   S223      1.0  0.8316699999999999  0.23229999999999998  0.7468999999999998  1.0000
  S   S224      1.0  0.16833  0.23229999999999998  0.7531  1.0000
  S   S225      1.0  0.6683300000000001  0.26770000000000005  0.2531000000000001  1.0000
  S   S226      1.0  0.33166999999999996  0.26770000000000005  0.24689999999999987  1.0000
  S   S227      1.0  0.16833000000000004  0.7677000000000002  0.2531000000000001  1.0000
  S   S228      1.0  0.8316699999999999  0.7677000000000002  0.24689999999999987  1.0000
  S   S229      1.0  0.2941  0.7290000000000002  0.8646  1.0000
  S   S230      1.0  0.7059  0.7290000000000002  0.6353999999999999  1.0000
  S   S231      1.0  0.7941000000000001  0.22900000000000012  0.8646  1.0000
  S   S232      1.0  0.20589999999999994  0.22900000000000012  0.6353999999999999  1.0000
  S   S233      1.0  0.7059  0.2709999999999999  0.13539999999999996  1.0000
  S   S234      1.0  0.2941  0.2709999999999999  0.36460000000000004  1.0000
  S   S235      1.0  0.2059  0.7709999999999999  0.13539999999999996  1.0000
  S   S236      1.0  0.7941000000000001  0.7709999999999999  0.36460000000000004  1.0000
  S   S237      1.0  0.46575999999999995  0.72813  0.8659999999999999  1.0000
  S   S238      1.0  0.53424  0.72813  0.6340000000000001  1.0000
  S   S239      1.0  0.9657599999999998  0.22813000000000017  0.8659999999999999  1.0000
  S   S240      1.0  0.03424000000000002  0.22813000000000017  0.6340000000000001  1.0000
  S   S241      1.0  0.53424  0.27186999999999995  0.1340000000000001  1.0000
  S   S242      1.0  0.4657599999999999  0.27186999999999995  0.3659999999999998  1.0000
  S   S243      1.0  0.034240000000000034  0.7718700000000001  0.1340000000000001  1.0000
  S   S244      1.0  0.96576  0.7718700000000001  0.3659999999999998  1.0000
  S   S245      1.0  0.14589999999999992  0.14613  0.09929999999999994  1.0000
  S   S246      1.0  0.8541000000000002  0.14613  0.4007  1.0000
  S   S247      1.0  0.6458999999999999  0.64613  0.09929999999999994  1.0000
  S   S248      1.0  0.3541  0.64613  0.4007  1.0000
  S   S249      1.0  0.8541000000000002  0.85387  0.9007  1.0000
  S   S250      1.0  0.14589999999999992  0.85387  0.5992999999999999  1.0000
  S   S251      1.0  0.3541  0.35387  0.9007  1.0000
  S   S252      1.0  0.6458999999999999  0.35387  0.5992999999999999  1.0000
  S   S253      1.0  0.10129999999999989  0.22920000000000004  0.9811999999999997  1.0000
  S   S254      1.0  0.8987  0.22920000000000004  0.5188000000000001  1.0000
  S   S255      1.0  0.6013  0.7292000000000001  0.9811999999999997  1.0000
  S   S256      1.0  0.3987000000000001  0.7292000000000001  0.5188000000000001  1.0000
  S   S257      1.0  0.8987  0.7708  0.01880000000000015  1.0000
  S   S258      1.0  0.10129999999999993  0.7708  0.4811999999999998  1.0000
  S   S259      1.0  0.3987000000000001  0.2708  0.01880000000000015  1.0000
  S   S260      1.0  0.6013000000000001  0.2708  0.4811999999999998  1.0000
  S   S261      1.0  0.049749999999999954  0.31487  0.8656  1.0000
  S   S262      1.0  0.95025  0.31487  0.6344  1.0000
  S   S263      1.0  0.54975  0.8148700000000001  0.8656  1.0000
  S   S264      1.0  0.4502500000000001  0.8148700000000001  0.6344  1.0000
  S   S265      1.0  0.95025  0.68513  0.13439999999999994  1.0000
  S   S266      1.0  0.049749999999999954  0.68513  0.36560000000000015  1.0000
  S   S267      1.0  0.4502500000000001  0.18513000000000004  0.13439999999999994  1.0000
  S   S268      1.0  0.54975  0.18513000000000004  0.36560000000000015  1.0000
  S   S269      1.0  0.0636000000000001  0.2278  0.10129999999999993  1.0000
  S   S270      1.0  0.9363999999999999  0.2278  0.39870000000000005  1.0000
  S   S271      1.0  0.5636000000000001  0.7278000000000001  0.10129999999999993  1.0000
  S   S272      1.0  0.4363999999999999  0.7278000000000001  0.39870000000000005  1.0000
  S   S273      1.0  0.9363999999999998  0.7722  0.8986999999999999  1.0000
  S   S274      1.0  0.06360000000000007  0.7722  0.6013  1.0000
  S   S275      1.0  0.4363999999999999  0.2722  0.8986999999999999  1.0000
  S   S276      1.0  0.5636000000000001  0.2722  0.6013  1.0000
  S   S277      1.0  0.016599999999999688  0.31303  0.9789999999999998  1.0000
  S   S278      1.0  0.9834000000000004  0.31303  0.521  1.0000
  S   S279      1.0  0.5165999999999996  0.8130299999999999  0.9789999999999998  1.0000
  S   S280      1.0  0.4834000000000003  0.8130299999999999  0.521  1.0000
  S   S281      1.0  0.9834000000000004  0.6869700000000001  0.02100000000000013  1.0000
  S   S282      1.0  0.016599999999999716  0.6869700000000001  0.47899999999999987  1.0000
  S   S283      1.0  0.4834000000000003  0.18697000000000003  0.02100000000000013  1.0000
  S   S284      1.0  0.5165999999999997  0.18697000000000003  0.47899999999999987  1.0000
  S   S285      1.0  0.9801  0.3122  0.10040000000000003  1.0000
  S   S286      1.0  0.019900000000000025  0.3122  0.39959999999999996  1.0000
  S   S287      1.0  0.48009999999999997  0.8122  0.10040000000000003  1.0000
  S   S288      1.0  0.5199  0.8122  0.39959999999999996  1.0000
  S   S289      1.0  0.019900000000000025  0.6878  0.8996  1.0000
  S   S290      1.0  0.9801  0.6878  0.6003999999999999  1.0000
  S   S291      1.0  0.5199  0.18780000000000002  0.8996  1.0000
  S   S292      1.0  0.4800999999999999  0.18780000000000002  0.6003999999999999  1.0000
  S   S293      1.0  0.9643999999999999  0.40100000000000013  0.8653999999999998  1.0000
  S   S294      1.0  0.035600000000000076  0.40100000000000013  0.6346000000000002  1.0000
  S   S295      1.0  0.4644  0.9010000000000001  0.8653999999999998  1.0000
  S   S296      1.0  0.5356000000000001  0.9010000000000001  0.6346000000000002  1.0000
  S   S297      1.0  0.03560000000000007  0.599  0.13460000000000014  1.0000
  S   S298      1.0  0.9643999999999999  0.599  0.3653999999999997  1.0000
  S   S299      1.0  0.5356000000000001  0.09899999999999992  0.13460000000000014  1.0000
  S   S300      1.0  0.46440000000000003  0.09899999999999992  0.3653999999999997  1.0000
  S   S301      1.0  0.9301000000000003  0.3999000000000001  0.9794999999999999  1.0000
  S   S302      1.0  0.06989999999999987  0.3999000000000001  0.5205000000000001  1.0000
  S   S303      1.0  0.4301000000000002  0.8999  0.9794999999999999  1.0000
  S   S304      1.0  0.5698999999999999  0.8999  0.5205000000000001  1.0000
  S   S305      1.0  0.06989999999999987  0.6001  0.020500000000000074  1.0000
  S   S306      1.0  0.9301000000000003  0.6001  0.4794999999999998  1.0000
  S   S307      1.0  0.5698999999999999  0.10009999999999998  0.020500000000000074  1.0000
  S   S308      1.0  0.4301000000000002  0.10009999999999998  0.4794999999999998  1.0000
  S   S309      1.0  0.0  0.4004  0.7499999999999999  1.0000
  S   S310      1.0  0.5  0.9004  0.7499999999999999  1.0000
  S   S311      1.0  0.0  0.5996000000000001  0.2500000000000001  1.0000
  S   S312      1.0  0.5  0.09960000000000004  0.2500000000000001  1.0000
  S   S313      1.0  0.41239999999999993  0.814  0.7454999999999999  1.0000
  S   S314      1.0  0.5876000000000001  0.814  0.7545000000000001  1.0000
  S   S315      1.0  0.9123999999999999  0.31400000000000006  0.7454999999999999  1.0000
  S   S316      1.0  0.08760000000000005  0.31400000000000006  0.7545000000000001  1.0000
  S   S317      1.0  0.5876000000000001  0.18600000000000005  0.25450000000000006  1.0000
  S   S318      1.0  0.41239999999999993  0.18600000000000005  0.2454999999999998  1.0000
  S   S319      1.0  0.08760000000000007  0.686  0.25450000000000006  1.0000
  S   S320      1.0  0.9123999999999999  0.686  0.2454999999999998  1.0000
  S   S321      1.0  0.8422  0.3105  0.9795999999999998  1.0000
  S   S322      1.0  0.1578  0.3105  0.5204  1.0000
  S   S323      1.0  0.34220000000000006  0.8105000000000001  0.9795999999999998  1.0000
  S   S324      1.0  0.6578  0.8105000000000001  0.5204  1.0000
  S   S325      1.0  0.15780000000000005  0.6895  0.02040000000000008  1.0000
  S   S326      1.0  0.8422  0.6895  0.47959999999999997  1.0000
  S   S327      1.0  0.6578  0.1895  0.02040000000000008  1.0000
  S   S328      1.0  0.34220000000000006  0.1895  0.47959999999999997  1.0000
