data_image0
_chemical_formula_structural       In192Co48S388
_chemical_formula_sum              "In192 Co48 S388"
_cell_length_a       35.002
_cell_length_b       35.002
_cell_length_c       35.002
_cell_angle_alpha    90.0
_cell_angle_beta     90.0
_cell_angle_gamma    90.0

_space_group_name_H-M_alt    "P 1"
_space_group_IT_number       1

loop_
  _space_group_symop_operation_xyz
  'x, y, z'

loop_
  _atom_site_type_symbol
  _atom_site_label
  _atom_site_symmetry_multiplicity
  _atom_site_fract_x
  _atom_site_fract_y
  _atom_site_fract_z
  _atom_site_occupancy
  In  In1       1.0  0.35633  0.41188  0.06615  1.0000
  In  In2       1.0  0.14367000000000002  0.5881200000000001  0.5661500000000002  1.0000
  In  In3       1.0  0.64367  0.91188  0.43385  1.0000
  In  In4       1.0  0.85633  0.08811999999999998  0.93385  1.0000
  In  In5       1.0  0.06615  0.35633  0.41188  1.0000
  In  In6       1.0  0.5661500000000002  0.14367000000000002  0.5881200000000001  1.0000
  In  In7       1.0  0.43385  0.64367  0.91188  1.0000
  In  In8       1.0  0.93385  0.85633  0.08811999999999998  1.0000
  In  In9       1.0  0.41188  0.06615  0.35633  1.0000
  In  In10      1.0  0.5881200000000001  0.5661500000000002  0.14367000000000002  1.0000
  In  In11      1.0  0.91188  0.43385  0.64367  1.0000
  In  In12      1.0  0.08811999999999998  0.93385  0.85633  1.0000
  In  In13      1.0  0.66188  0.6063300000000001  0.31615  1.0000
  In  In14      1.0  0.83812  0.39367  0.81615  1.0000
  In  In15      1.0  0.16188000000000002  0.89367  0.68385  1.0000
  In  In16      1.0  0.33812  0.10633000000000004  0.18385  1.0000
  In  In17      1.0  0.6063300000000001  0.31615  0.66188  1.0000
  In  In18      1.0  0.39367  0.81615  0.83812  1.0000
  In  In19      1.0  0.89367  0.68385  0.16188000000000002  1.0000
  In  In20      1.0  0.10633000000000004  0.18385  0.33812  1.0000
  In  In21      1.0  0.31615  0.66188  0.6063300000000001  1.0000
  In  In22      1.0  0.81615  0.83812  0.39367  1.0000
  In  In23      1.0  0.68385  0.16188000000000002  0.89367  1.0000
  In  In24      1.0  0.18385  0.33812  0.10633000000000004  1.0000
  In  In25      1.0  0.85633  0.91188  0.5661500000000002  1.0000
  In  In26      1.0  0.64367  0.08811999999999998  0.06615  1.0000
  In  In27      1.0  0.14367000000000002  0.41188  0.93385  1.0000
  In  In28      1.0  0.35633  0.5881200000000001  0.43385  1.0000
  In  In29      1.0  0.5661500000000002  0.85633  0.91188  1.0000
  In  In30      1.0  0.06615  0.64367  0.08811999999999998  1.0000
  In  In31      1.0  0.93385  0.14367000000000002  0.41188  1.0000
  In  In32      1.0  0.43385  0.35633  0.5881200000000001  1.0000
  In  In33      1.0  0.91188  0.5661500000000002  0.85633  1.0000
  In  In34      1.0  0.08811999999999998  0.06615  0.64367  1.0000
  In  In35      1.0  0.41188  0.93385  0.14367000000000002  1.0000
  In  In36      1.0  0.5881200000000001  0.43385  0.35633  1.0000
  In  In37      1.0  0.16188000000000002  0.10633000000000004  0.81615  1.0000
  In  In38      1.0  0.33812  0.89367  0.31615  1.0000
  In  In39      1.0  0.66188  0.39367  0.18385  1.0000
  In  In40      1.0  0.83812  0.6063300000000001  0.68385  1.0000
  In  In41      1.0  0.10633000000000004  0.81615  0.16188000000000002  1.0000
  In  In42      1.0  0.89367  0.31615  0.33812  1.0000
  In  In43      1.0  0.39367  0.18385  0.66188  1.0000
  In  In44      1.0  0.6063300000000001  0.68385  0.83812  1.0000
  In  In45      1.0  0.81615  0.16188000000000002  0.10633000000000004  1.0000
  In  In46      1.0  0.31615  0.33812  0.89367  1.0000
  In  In47      1.0  0.18385  0.66188  0.39367  1.0000
  In  In48      1.0  0.68385  0.83812  0.6063300000000001  1.0000
  In  In49      1.0  0.3043  0.49468000000000006  0.00661  1.0000
  In  In50      1.0  0.19569999999999999  0.50532  0.50661  1.0000
  In  In51      1.0  0.6957  0.9946800000000001  0.49339000000000005  1.0000
  In  In52      1.0  0.8043  0.005319999999999936  0.9933900000000001  1.0000
  In  In53      1.0  0.00661  0.3043  0.49468000000000006  1.0000
  In  In54      1.0  0.50661  0.19569999999999999  0.50532  1.0000
  In  In55      1.0  0.49339000000000005  0.6957  0.9946800000000001  1.0000
  In  In56      1.0  0.9933900000000001  0.8043  0.005319999999999936  1.0000
  In  In57      1.0  0.49468000000000006  0.00661  0.3043  1.0000
  In  In58      1.0  0.50532  0.50661  0.19569999999999999  1.0000
  In  In59      1.0  0.9946800000000001  0.49339000000000005  0.6957  1.0000
  In  In60      1.0  0.005319999999999936  0.9933900000000001  0.8043  1.0000
  In  In61      1.0  0.74468  0.5543  0.25661  1.0000
  In  In62      1.0  0.75532  0.44570000000000004  0.75661  1.0000
  In  In63      1.0  0.24467999999999998  0.9457000000000001  0.74339  1.0000
  In  In64      1.0  0.25531999999999994  0.054300000000000015  0.24339  1.0000
  In  In65      1.0  0.5543  0.25661  0.74468  1.0000
  In  In66      1.0  0.44570000000000004  0.75661  0.75532  1.0000
  In  In67      1.0  0.9457000000000001  0.74339  0.24467999999999998  1.0000
  In  In68      1.0  0.054300000000000015  0.24339  0.25531999999999994  1.0000
  In  In69      1.0  0.25661  0.74468  0.5543  1.0000
  In  In70      1.0  0.75661  0.75532  0.44570000000000004  1.0000
  In  In71      1.0  0.74339  0.24467999999999998  0.9457000000000001  1.0000
  In  In72      1.0  0.24339  0.25531999999999994  0.054300000000000015  1.0000
  In  In73      1.0  0.8043  0.9946800000000001  0.50661  1.0000
  In  In74      1.0  0.6957  0.005319999999999936  0.00661  1.0000
  In  In75      1.0  0.19569999999999999  0.49468000000000006  0.9933900000000001  1.0000
  In  In76      1.0  0.3043  0.50532  0.49339000000000005  1.0000
  In  In77      1.0  0.50661  0.8043  0.9946800000000001  1.0000
  In  In78      1.0  0.00661  0.6957  0.005319999999999936  1.0000
  In  In79      1.0  0.9933900000000001  0.19569999999999999  0.49468000000000006  1.0000
  In  In80      1.0  0.49339000000000005  0.3043  0.50532  1.0000
  In  In81      1.0  0.9946800000000001  0.50661  0.8043  1.0000
  In  In82      1.0  0.005319999999999936  0.00661  0.6957  1.0000
  In  In83      1.0  0.49468000000000006  0.9933900000000001  0.19569999999999999  1.0000
  In  In84      1.0  0.50532  0.49339000000000005  0.3043  1.0000
  In  In85      1.0  0.24467999999999998  0.054300000000000015  0.75661  1.0000
  In  In86      1.0  0.25531999999999994  0.9457000000000001  0.25661  1.0000
  In  In87      1.0  0.74468  0.44570000000000004  0.24339  1.0000
  In  In88      1.0  0.75532  0.5543  0.74339  1.0000
  In  In89      1.0  0.054300000000000015  0.75661  0.24467999999999998  1.0000
  In  In90      1.0  0.9457000000000001  0.25661  0.25531999999999994  1.0000
  In  In91      1.0  0.44570000000000004  0.24339  0.74468  1.0000
  In  In92      1.0  0.5543  0.74339  0.75532  1.0000
  In  In93      1.0  0.75661  0.24467999999999998  0.054300000000000015  1.0000
  In  In94      1.0  0.25661  0.25531999999999994  0.9457000000000001  1.0000
  In  In95      1.0  0.24339  0.74468  0.44570000000000004  1.0000
  In  In96      1.0  0.74339  0.75532  0.5543  1.0000
  In  In97      1.0  0.36732  0.4141800000000001  0.95254  1.0000
  In  In98      1.0  0.13268000000000002  0.58582  0.45254000000000005  1.0000
  In  In99      1.0  0.6326800000000001  0.91418  0.5474600000000002  1.0000
  In  In100     1.0  0.86732  0.08581999999999995  0.04746  1.0000
  In  In101     1.0  0.95254  0.36732  0.4141800000000001  1.0000
  In  In102     1.0  0.45254000000000005  0.13268000000000002  0.58582  1.0000
  In  In103     1.0  0.5474600000000002  0.6326800000000001  0.91418  1.0000
  In  In104     1.0  0.04746  0.86732  0.08581999999999995  1.0000
  In  In105     1.0  0.4141800000000001  0.95254  0.36732  1.0000
  In  In106     1.0  0.58582  0.45254000000000005  0.13268000000000002  1.0000
  In  In107     1.0  0.91418  0.5474600000000002  0.6326800000000001  1.0000
  In  In108     1.0  0.08581999999999995  0.04746  0.86732  1.0000
  In  In109     1.0  0.66418  0.61732  0.20254000000000003  1.0000
  In  In110     1.0  0.8358200000000001  0.38268  0.7025399999999999  1.0000
  In  In111     1.0  0.16418  0.88268  0.7974600000000001  1.0000
  In  In112     1.0  0.33581999999999995  0.11731999999999987  0.29746  1.0000
  In  In113     1.0  0.61732  0.20254000000000003  0.66418  1.0000
  In  In114     1.0  0.38268  0.7025399999999999  0.8358200000000001  1.0000
  In  In115     1.0  0.88268  0.7974600000000001  0.16418  1.0000
  In  In116     1.0  0.11731999999999987  0.29746  0.33581999999999995  1.0000
  In  In117     1.0  0.20254000000000003  0.66418  0.61732  1.0000
  In  In118     1.0  0.7025399999999999  0.8358200000000001  0.38268  1.0000
  In  In119     1.0  0.7974600000000001  0.16418  0.88268  1.0000
  In  In120     1.0  0.29746  0.33581999999999995  0.11731999999999987  1.0000
  In  In121     1.0  0.86732  0.91418  0.45254000000000005  1.0000
  In  In122     1.0  0.6326800000000001  0.08581999999999995  0.95254  1.0000
  In  In123     1.0  0.13268000000000002  0.4141800000000001  0.04746  1.0000
  In  In124     1.0  0.36732  0.58582  0.5474600000000002  1.0000
  In  In125     1.0  0.45254000000000005  0.86732  0.91418  1.0000
  In  In126     1.0  0.95254  0.6326800000000001  0.08581999999999995  1.0000
  In  In127     1.0  0.04746  0.13268000000000002  0.4141800000000001  1.0000
  In  In128     1.0  0.5474600000000002  0.36732  0.58582  1.0000
  In  In129     1.0  0.91418  0.45254000000000005  0.86732  1.0000
  In  In130     1.0  0.08581999999999995  0.95254  0.6326800000000001  1.0000
  In  In131     1.0  0.4141800000000001  0.04746  0.13268000000000002  1.0000
  In  In132     1.0  0.58582  0.5474600000000002  0.36732  1.0000
  In  In133     1.0  0.16418  0.11731999999999987  0.7025399999999999  1.0000
  In  In134     1.0  0.33581999999999995  0.88268  0.20254000000000003  1.0000
  In  In135     1.0  0.66418  0.38268  0.29746  1.0000
  In  In136     1.0  0.8358200000000001  0.61732  0.7974600000000001  1.0000
  In  In137     1.0  0.11731999999999987  0.7025399999999999  0.16418  1.0000
  In  In138     1.0  0.88268  0.20254000000000003  0.33581999999999995  1.0000
  In  In139     1.0  0.38268  0.29746  0.66418  1.0000
  In  In140     1.0  0.61732  0.7974600000000001  0.8358200000000001  1.0000
  In  In141     1.0  0.7025399999999999  0.16418  0.11731999999999987  1.0000
  In  In142     1.0  0.20254000000000003  0.33581999999999995  0.88268  1.0000
  In  In143     1.0  0.29746  0.66418  0.38268  1.0000
  In  In144     1.0  0.7974600000000001  0.8358200000000001  0.61732  1.0000
  In  In145     1.0  0.41322000000000003  0.4917  0.015570000000000002  1.0000
  In  In146     1.0  0.08677999999999997  0.5083  0.51557  1.0000
  In  In147     1.0  0.58678  0.9917000000000001  0.48442999999999997  1.0000
  In  In148     1.0  0.91322  0.008299999999999974  0.9844300000000001  1.0000
  In  In149     1.0  0.015570000000000002  0.41322000000000003  0.4917  1.0000
  In  In150     1.0  0.51557  0.08677999999999997  0.5083  1.0000
  In  In151     1.0  0.48442999999999997  0.58678  0.9917000000000001  1.0000
  In  In152     1.0  0.9844300000000001  0.91322  0.008299999999999974  1.0000
  In  In153     1.0  0.4917  0.015570000000000002  0.41322000000000003  1.0000
  In  In154     1.0  0.5083  0.51557  0.08677999999999997  1.0000
  In  In155     1.0  0.9917000000000001  0.48442999999999997  0.58678  1.0000
  In  In156     1.0  0.008299999999999974  0.9844300000000001  0.91322  1.0000
  In  In157     1.0  0.7417  0.66322  0.26557000000000003  1.0000
  In  In158     1.0  0.7583  0.33677999999999997  0.76557  1.0000
  In  In159     1.0  0.24170000000000005  0.8367800000000001  0.73443  1.0000
  In  In160     1.0  0.2583  0.16321999999999992  0.23442999999999997  1.0000
  In  In161     1.0  0.66322  0.26557000000000003  0.7417  1.0000
  In  In162     1.0  0.33677999999999997  0.76557  0.7583  1.0000
  In  In163     1.0  0.8367800000000001  0.73443  0.24170000000000005  1.0000
  In  In164     1.0  0.16321999999999992  0.23442999999999997  0.2583  1.0000
  In  In165     1.0  0.26557000000000003  0.7417  0.66322  1.0000
  In  In166     1.0  0.76557  0.7583  0.33677999999999997  1.0000
  In  In167     1.0  0.73443  0.24170000000000005  0.8367800000000001  1.0000
  In  In168     1.0  0.23442999999999997  0.2583  0.16321999999999992  1.0000
  In  In169     1.0  0.91322  0.9917000000000001  0.51557  1.0000
  In  In170     1.0  0.58678  0.008299999999999974  0.015570000000000002  1.0000
  In  In171     1.0  0.08677999999999997  0.4917  0.9844300000000001  1.0000
  In  In172     1.0  0.41322000000000003  0.5083  0.48442999999999997  1.0000
  In  In173     1.0  0.51557  0.91322  0.9917000000000001  1.0000
  In  In174     1.0  0.015570000000000002  0.58678  0.008299999999999974  1.0000
  In  In175     1.0  0.9844300000000001  0.08677999999999997  0.4917  1.0000
  In  In176     1.0  0.48442999999999997  0.41322000000000003  0.5083  1.0000
  In  In177     1.0  0.9917000000000001  0.51557  0.91322  1.0000
  In  In178     1.0  0.008299999999999974  0.015570000000000002  0.58678  1.0000
  In  In179     1.0  0.4917  0.9844300000000001  0.08677999999999997  1.0000
  In  In180     1.0  0.5083  0.48442999999999997  0.41322000000000003  1.0000
  In  In181     1.0  0.24170000000000005  0.16321999999999992  0.76557  1.0000
  In  In182     1.0  0.2583  0.8367800000000001  0.26557000000000003  1.0000
  In  In183     1.0  0.7417  0.33677999999999997  0.23442999999999997  1.0000
  In  In184     1.0  0.7583  0.66322  0.73443  1.0000
  In  In185     1.0  0.16321999999999992  0.76557  0.24170000000000005  1.0000
  In  In186     1.0  0.8367800000000001  0.26557000000000003  0.2583  1.0000
  In  In187     1.0  0.33677999999999997  0.23442999999999997  0.7417  1.0000
  In  In188     1.0  0.66322  0.73443  0.7583  1.0000
  In  In189     1.0  0.76557  0.24170000000000005  0.16321999999999992  1.0000
  In  In190     1.0  0.26557000000000003  0.2583  0.8367800000000001  1.0000
  In  In191     1.0  0.23442999999999997  0.7417  0.33677999999999997  1.0000
  In  In192     1.0  0.73443  0.7583  0.66322  1.0000
  Co  Co1       1.0  0.30524  0.33565  0.00503  1.0000
  Co  Co2       1.0  0.19476  0.66435  0.50503  1.0000
  Co  Co3       1.0  0.6947600000000002  0.83565  0.4949700000000001  1.0000
  Co  Co4       1.0  0.80524  0.16435  0.9949700000000001  1.0000
  Co  Co5       1.0  0.00503  0.30524  0.33565  1.0000
  Co  Co6       1.0  0.50503  0.19476  0.66435  1.0000
  Co  Co7       1.0  0.4949700000000001  0.6947600000000002  0.83565  1.0000
  Co  Co8       1.0  0.9949700000000001  0.80524  0.16435  1.0000
  Co  Co9       1.0  0.33565  0.00503  0.30524  1.0000
  Co  Co10      1.0  0.66435  0.50503  0.19476  1.0000
  Co  Co11      1.0  0.83565  0.4949700000000001  0.6947600000000002  1.0000
  Co  Co12      1.0  0.16435  0.9949700000000001  0.80524  1.0000
  Co  Co13      1.0  0.5856500000000001  0.55524  0.25503  1.0000
  Co  Co14      1.0  0.91435  0.44476  0.75503  1.0000
  Co  Co15      1.0  0.08565  0.9447600000000002  0.74497  1.0000
  Co  Co16      1.0  0.41435000000000005  0.05523999999999996  0.24496999999999997  1.0000
  Co  Co17      1.0  0.55524  0.25503  0.5856500000000001  1.0000
  Co  Co18      1.0  0.44476  0.75503  0.91435  1.0000
  Co  Co19      1.0  0.9447600000000002  0.74497  0.08565  1.0000
  Co  Co20      1.0  0.05523999999999996  0.24496999999999997  0.41435000000000005  1.0000
  Co  Co21      1.0  0.25503  0.5856500000000001  0.55524  1.0000
  Co  Co22      1.0  0.75503  0.91435  0.44476  1.0000
  Co  Co23      1.0  0.74497  0.08565  0.9447600000000002  1.0000
  Co  Co24      1.0  0.24496999999999997  0.41435000000000005  0.05523999999999996  1.0000
  Co  Co25      1.0  0.80524  0.83565  0.50503  1.0000
  Co  Co26      1.0  0.6947600000000002  0.16435  0.00503  1.0000
  Co  Co27      1.0  0.19476  0.33565  0.9949700000000001  1.0000
  Co  Co28      1.0  0.30524  0.66435  0.4949700000000001  1.0000
  Co  Co29      1.0  0.50503  0.80524  0.83565  1.0000
  Co  Co30      1.0  0.00503  0.6947600000000002  0.16435  1.0000
  Co  Co31      1.0  0.9949700000000001  0.19476  0.33565  1.0000
  Co  Co32      1.0  0.4949700000000001  0.30524  0.66435  1.0000
  Co  Co33      1.0  0.83565  0.50503  0.80524  1.0000
  Co  Co34      1.0  0.16435  0.00503  0.6947600000000002  1.0000
  Co  Co35      1.0  0.33565  0.9949700000000001  0.19476  1.0000
  Co  Co36      1.0  0.66435  0.4949700000000001  0.30524  1.0000
  Co  Co37      1.0  0.08565  0.05523999999999996  0.75503  1.0000
  Co  Co38      1.0  0.41435000000000005  0.9447600000000002  0.25503  1.0000
  Co  Co39      1.0  0.5856500000000001  0.44476  0.24496999999999997  1.0000
  Co  Co40      1.0  0.91435  0.55524  0.74497  1.0000
  Co  Co41      1.0  0.05523999999999996  0.75503  0.08565  1.0000
  Co  Co42      1.0  0.9447600000000002  0.25503  0.41435000000000005  1.0000
  Co  Co43      1.0  0.44476  0.24496999999999997  0.5856500000000001  1.0000
  Co  Co44      1.0  0.55524  0.74497  0.91435  1.0000
  Co  Co45      1.0  0.75503  0.08565  0.05523999999999996  1.0000
  Co  Co46      1.0  0.25503  0.41435000000000005  0.9447600000000002  1.0000
  Co  Co47      1.0  0.24496999999999997  0.5856500000000001  0.44476  1.0000
  Co  Co48      1.0  0.74497  0.91435  0.55524  1.0000
  S   S1        1.0  0.25  0.375  0.0  1.0000
  S   S2        1.0  0.25  0.625  0.5  1.0000
  S   S3        1.0  0.75  0.875  0.5  1.0000
  S   S4        1.0  0.75  0.125  0.0  1.0000
  S   S5        1.0  0.0  0.25  0.375  1.0000
  S   S6        1.0  0.5  0.25  0.625  1.0000
  S   S7        1.0  0.5  0.75  0.875  1.0000
  S   S8        1.0  0.0  0.75  0.125  1.0000
  S   S9        1.0  0.375  0.0  0.25  1.0000
  S   S10       1.0  0.625  0.5  0.25  1.0000
  S   S11       1.0  0.875  0.5  0.75  1.0000
  S   S12       1.0  0.125  0.0  0.75  1.0000
  S   S13       1.0  0.36215  0.37097  0.00881  1.0000
  S   S14       1.0  0.13784999999999997  0.62903  0.50881  1.0000
  S   S15       1.0  0.63785  0.87097  0.49119000000000007  1.0000
  S   S16       1.0  0.86215  0.12902999999999998  0.9911900000000001  1.0000
  S   S17       1.0  0.00881  0.36215  0.37097  1.0000
  S   S18       1.0  0.50881  0.13784999999999997  0.62903  1.0000
  S   S19       1.0  0.49119000000000007  0.63785  0.87097  1.0000
  S   S20       1.0  0.9911900000000001  0.86215  0.12902999999999998  1.0000
  S   S21       1.0  0.37097  0.00881  0.36215  1.0000
  S   S22       1.0  0.62903  0.50881  0.13784999999999997  1.0000
  S   S23       1.0  0.87097  0.49119000000000007  0.63785  1.0000
  S   S24       1.0  0.12902999999999998  0.9911900000000001  0.86215  1.0000
  S   S25       1.0  0.6209700000000001  0.61215  0.25881000000000004  1.0000
  S   S26       1.0  0.87903  0.38785  0.75881  1.0000
  S   S27       1.0  0.12097000000000004  0.8878500000000001  0.74119  1.0000
  S   S28       1.0  0.37903000000000003  0.11214999999999999  0.24119  1.0000
  S   S29       1.0  0.61215  0.25881000000000004  0.6209700000000001  1.0000
  S   S30       1.0  0.38785  0.75881  0.87903  1.0000
  S   S31       1.0  0.8878500000000001  0.74119  0.12097000000000004  1.0000
  S   S32       1.0  0.11214999999999999  0.24119  0.37903000000000003  1.0000
  S   S33       1.0  0.25881000000000004  0.6209700000000001  0.61215  1.0000
  S   S34       1.0  0.75881  0.87903  0.38785  1.0000
  S   S35       1.0  0.74119  0.12097000000000004  0.8878500000000001  1.0000
  S   S36       1.0  0.24119  0.37903000000000003  0.11214999999999999  1.0000
  S   S37       1.0  0.86215  0.87097  0.50881  1.0000
  S   S38       1.0  0.63785  0.12902999999999998  0.00881  1.0000
  S   S39       1.0  0.13784999999999997  0.37097  0.9911900000000001  1.0000
  S   S40       1.0  0.36215  0.62903  0.49119000000000007  1.0000
  S   S41       1.0  0.50881  0.86215  0.87097  1.0000
  S   S42       1.0  0.00881  0.63785  0.12902999999999998  1.0000
  S   S43       1.0  0.9911900000000001  0.13784999999999997  0.37097  1.0000
  S   S44       1.0  0.49119000000000007  0.36215  0.62903  1.0000
  S   S45       1.0  0.87097  0.50881  0.86215  1.0000
  S   S46       1.0  0.12902999999999998  0.00881  0.63785  1.0000
  S   S47       1.0  0.37097  0.9911900000000001  0.13784999999999997  1.0000
  S   S48       1.0  0.62903  0.49119000000000007  0.36215  1.0000
  S   S49       1.0  0.12097000000000004  0.11214999999999999  0.75881  1.0000
  S   S50       1.0  0.37903000000000003  0.8878500000000001  0.25881000000000004  1.0000
  S   S51       1.0  0.6209700000000001  0.38785  0.24119  1.0000
  S   S52       1.0  0.87903  0.61215  0.74119  1.0000
  S   S53       1.0  0.11214999999999999  0.75881  0.12097000000000004  1.0000
  S   S54       1.0  0.8878500000000001  0.25881000000000004  0.37903000000000003  1.0000
  S   S55       1.0  0.38785  0.24119  0.6209700000000001  1.0000
  S   S56       1.0  0.61215  0.74119  0.87903  1.0000
  S   S57       1.0  0.75881  0.12097000000000004  0.11214999999999999  1.0000
  S   S58       1.0  0.25881000000000004  0.37903000000000003  0.8878500000000001  1.0000
  S   S59       1.0  0.24119  0.6209700000000001  0.38785  1.0000
  S   S60       1.0  0.74119  0.87903  0.61215  1.0000
  S   S61       1.0  0.314  0.29658  0.9513900000000001  1.0000
  S   S62       1.0  0.186  0.7034199999999999  0.45139  1.0000
  S   S63       1.0  0.6859999999999999  0.7965800000000001  0.54861  1.0000
  S   S64       1.0  0.8140000000000002  0.20342  0.04861  1.0000
  S   S65       1.0  0.9513900000000001  0.314  0.29658  1.0000
  S   S66       1.0  0.45139  0.186  0.7034199999999999  1.0000
  S   S67       1.0  0.54861  0.6859999999999999  0.7965800000000001  1.0000
  S   S68       1.0  0.04861  0.8140000000000002  0.20342  1.0000
  S   S69       1.0  0.29658  0.9513900000000001  0.314  1.0000
  S   S70       1.0  0.7034199999999999  0.45139  0.186  1.0000
  S   S71       1.0  0.7965800000000001  0.54861  0.6859999999999999  1.0000
  S   S72       1.0  0.20342  0.04861  0.8140000000000002  1.0000
  S   S73       1.0  0.5465800000000002  0.5640000000000001  0.20139  1.0000
  S   S74       1.0  0.9534199999999999  0.436  0.7013900000000001  1.0000
  S   S75       1.0  0.046580000000000066  0.9359999999999998  0.79861  1.0000
  S   S76       1.0  0.45342  0.06400000000000006  0.29861000000000004  1.0000
  S   S77       1.0  0.5640000000000001  0.20139  0.5465800000000002  1.0000
  S   S78       1.0  0.436  0.7013900000000001  0.9534199999999999  1.0000
  S   S79       1.0  0.9359999999999998  0.79861  0.046580000000000066  1.0000
  S   S80       1.0  0.06400000000000006  0.29861000000000004  0.45342  1.0000
  S   S81       1.0  0.20139  0.5465800000000002  0.5640000000000001  1.0000
  S   S82       1.0  0.7013900000000001  0.9534199999999999  0.436  1.0000
  S   S83       1.0  0.79861  0.046580000000000066  0.9359999999999998  1.0000
  S   S84       1.0  0.29861000000000004  0.45342  0.06400000000000006  1.0000
  S   S85       1.0  0.8140000000000002  0.7965800000000001  0.45139  1.0000
  S   S86       1.0  0.6859999999999999  0.20342  0.9513900000000001  1.0000
  S   S87       1.0  0.186  0.29658  0.04861  1.0000
  S   S88       1.0  0.314  0.7034199999999999  0.54861  1.0000
  S   S89       1.0  0.45139  0.8140000000000002  0.7965800000000001  1.0000
  S   S90       1.0  0.9513900000000001  0.6859999999999999  0.20342  1.0000
  S   S91       1.0  0.04861  0.186  0.29658  1.0000
  S   S92       1.0  0.54861  0.314  0.7034199999999999  1.0000
  S   S93       1.0  0.7965800000000001  0.45139  0.8140000000000002  1.0000
  S   S94       1.0  0.20342  0.9513900000000001  0.6859999999999999  1.0000
  S   S95       1.0  0.29658  0.04861  0.186  1.0000
  S   S96       1.0  0.7034199999999999  0.54861  0.314  1.0000
  S   S97       1.0  0.046580000000000066  0.06400000000000006  0.7013900000000001  1.0000
  S   S98       1.0  0.45342  0.9359999999999998  0.20139  1.0000
  S   S99       1.0  0.5465800000000002  0.436  0.29861000000000004  1.0000
  S   S100      1.0  0.9534199999999999  0.5640000000000001  0.79861  1.0000
  S   S101      1.0  0.06400000000000006  0.7013900000000001  0.046580000000000066  1.0000
  S   S102      1.0  0.9359999999999998  0.20139  0.45342  1.0000
  S   S103      1.0  0.436  0.29861000000000004  0.5465800000000002  1.0000
  S   S104      1.0  0.5640000000000001  0.79861  0.9534199999999999  1.0000
  S   S105      1.0  0.7013900000000001  0.046580000000000066  0.06400000000000006  1.0000
  S   S106      1.0  0.20139  0.45342  0.9359999999999998  1.0000
  S   S107      1.0  0.29861000000000004  0.5465800000000002  0.436  1.0000
  S   S108      1.0  0.79861  0.9534199999999999  0.5640000000000001  1.0000
  S   S109      1.0  0.30185  0.2957  0.058850000000000006  1.0000
  S   S110      1.0  0.19815  0.7042999999999999  0.55885  1.0000
  S   S111      1.0  0.69815  0.7957000000000001  0.44115000000000004  1.0000
  S   S112      1.0  0.80185  0.2043  0.94115  1.0000
  S   S113      1.0  0.058850000000000006  0.30185  0.2957  1.0000
  S   S114      1.0  0.55885  0.19815  0.7042999999999999  1.0000
  S   S115      1.0  0.44115000000000004  0.69815  0.7957000000000001  1.0000
  S   S116      1.0  0.94115  0.80185  0.2043  1.0000
  S   S117      1.0  0.2957  0.058850000000000006  0.30185  1.0000
  S   S118      1.0  0.7042999999999999  0.55885  0.19815  1.0000
  S   S119      1.0  0.7957000000000001  0.44115000000000004  0.69815  1.0000
  S   S120      1.0  0.2043  0.94115  0.80185  1.0000
  S   S121      1.0  0.5457000000000001  0.55185  0.30885  1.0000
  S   S122      1.0  0.9543  0.44815  0.8088500000000001  1.0000
  S   S123      1.0  0.045700000000000074  0.94815  0.69115  1.0000
  S   S124      1.0  0.4543  0.05184999999999995  0.19115  1.0000
  S   S125      1.0  0.55185  0.30885  0.5457000000000001  1.0000
  S   S126      1.0  0.44815  0.8088500000000001  0.9543  1.0000
  S   S127      1.0  0.94815  0.69115  0.045700000000000074  1.0000
  S   S128      1.0  0.05184999999999995  0.19115  0.4543  1.0000
  S   S129      1.0  0.30885  0.5457000000000001  0.55185  1.0000
  S   S130      1.0  0.8088500000000001  0.9543  0.44815  1.0000
  S   S131      1.0  0.69115  0.045700000000000074  0.94815  1.0000
  S   S132      1.0  0.19115  0.4543  0.05184999999999995  1.0000
  S   S133      1.0  0.80185  0.7957000000000001  0.55885  1.0000
  S   S134      1.0  0.69815  0.2043  0.058850000000000006  1.0000
  S   S135      1.0  0.19815  0.2957  0.94115  1.0000
  S   S136      1.0  0.30185  0.7042999999999999  0.44115000000000004  1.0000
  S   S137      1.0  0.55885  0.80185  0.7957000000000001  1.0000
  S   S138      1.0  0.058850000000000006  0.69815  0.2043  1.0000
  S   S139      1.0  0.94115  0.19815  0.2957  1.0000
  S   S140      1.0  0.44115000000000004  0.30185  0.7042999999999999  1.0000
  S   S141      1.0  0.7957000000000001  0.55885  0.80185  1.0000
  S   S142      1.0  0.2043  0.058850000000000006  0.69815  1.0000
  S   S143      1.0  0.2957  0.94115  0.19815  1.0000
  S   S144      1.0  0.7042999999999999  0.44115000000000004  0.30185  1.0000
  S   S145      1.0  0.045700000000000074  0.05184999999999995  0.8088500000000001  1.0000
  S   S146      1.0  0.4543  0.94815  0.30885  1.0000
  S   S147      1.0  0.5457000000000001  0.44815  0.19115  1.0000
  S   S148      1.0  0.9543  0.55185  0.69115  1.0000
  S   S149      1.0  0.05184999999999995  0.8088500000000001  0.045700000000000074  1.0000
  S   S150      1.0  0.94815  0.30885  0.4543  1.0000
  S   S151      1.0  0.44815  0.19115  0.5457000000000001  1.0000
  S   S152      1.0  0.55185  0.69115  0.9543  1.0000
  S   S153      1.0  0.8088500000000001  0.045700000000000074  0.05184999999999995  1.0000
  S   S154      1.0  0.30885  0.4543  0.94815  1.0000
  S   S155      1.0  0.19115  0.5457000000000001  0.44815  1.0000
  S   S156      1.0  0.69115  0.9543  0.55185  1.0000
  S   S157      1.0  0.25  0.5362  0.0  1.0000
  S   S158      1.0  0.25  0.46380000000000005  0.5  1.0000
  S   S159      1.0  0.75  0.03620000000000001  0.5  1.0000
  S   S160      1.0  0.75  0.9638  0.0  1.0000
  S   S161      1.0  0.0  0.25  0.5362  1.0000
  S   S162      1.0  0.5  0.25  0.46380000000000005  1.0000
  S   S163      1.0  0.5  0.75  0.03620000000000001  1.0000
  S   S164      1.0  0.0  0.75  0.9638  1.0000
  S   S165      1.0  0.5362  0.0  0.25  1.0000
  S   S166      1.0  0.46380000000000005  0.5  0.25  1.0000
  S   S167      1.0  0.03620000000000001  0.5  0.75  1.0000
  S   S168      1.0  0.9638  0.0  0.75  1.0000
  S   S169      1.0  0.7862000000000001  0.5  0.25  1.0000
  S   S170      1.0  0.7138  0.5  0.75  1.0000
  S   S171      1.0  0.2862  0.0  0.75  1.0000
  S   S172      1.0  0.2138  0.0  0.25  1.0000
  S   S173      1.0  0.5  0.25  0.7862000000000001  1.0000
  S   S174      1.0  0.5  0.75  0.7138  1.0000
  S   S175      1.0  0.0  0.75  0.2862  1.0000
  S   S176      1.0  0.0  0.25  0.2138  1.0000
  S   S177      1.0  0.25  0.7862000000000001  0.5  1.0000
  S   S178      1.0  0.75  0.7138  0.5  1.0000
  S   S179      1.0  0.75  0.2862  0.0  1.0000
  S   S180      1.0  0.25  0.2138  0.0  1.0000
  S   S181      1.0  0.3598700000000001  0.53547  0.0116  1.0000
  S   S182      1.0  0.14012999999999995  0.46453  0.5116000000000002  1.0000
  S   S183      1.0  0.64013  0.03547000000000011  0.4884  1.0000
  S   S184      1.0  0.8598700000000001  0.96453  0.9884000000000001  1.0000
  S   S185      1.0  0.0116  0.3598700000000001  0.53547  1.0000
  S   S186      1.0  0.5116000000000002  0.14012999999999995  0.46453  1.0000
  S   S187      1.0  0.4884  0.64013  0.03547000000000011  1.0000
  S   S188      1.0  0.9884000000000001  0.8598700000000001  0.96453  1.0000
  S   S189      1.0  0.53547  0.0116  0.3598700000000001  1.0000
  S   S190      1.0  0.46453  0.5116000000000002  0.14012999999999995  1.0000
  S   S191      1.0  0.03547000000000011  0.4884  0.64013  1.0000
  S   S192      1.0  0.96453  0.9884000000000001  0.8598700000000001  1.0000
  S   S193      1.0  0.78547  0.6098700000000001  0.2616  1.0000
  S   S194      1.0  0.7145300000000001  0.3901299999999999  0.7616  1.0000
  S   S195      1.0  0.2854700000000001  0.8901299999999999  0.7384  1.0000
  S   S196      1.0  0.21453  0.10987000000000013  0.2384  1.0000
  S   S197      1.0  0.6098700000000001  0.2616  0.78547  1.0000
  S   S198      1.0  0.3901299999999999  0.7616  0.7145300000000001  1.0000
  S   S199      1.0  0.8901299999999999  0.7384  0.2854700000000001  1.0000
  S   S200      1.0  0.10987000000000013  0.2384  0.21453  1.0000
  S   S201      1.0  0.2616  0.78547  0.6098700000000001  1.0000
  S   S202      1.0  0.7616  0.7145300000000001  0.3901299999999999  1.0000
  S   S203      1.0  0.7384  0.2854700000000001  0.8901299999999999  1.0000
  S   S204      1.0  0.2384  0.21453  0.10987000000000013  1.0000
  S   S205      1.0  0.8598700000000001  0.03547000000000011  0.5116000000000002  1.0000
  S   S206      1.0  0.64013  0.96453  0.0116  1.0000
  S   S207      1.0  0.14012999999999995  0.53547  0.9884000000000001  1.0000
  S   S208      1.0  0.3598700000000001  0.46453  0.4884  1.0000
  S   S209      1.0  0.5116000000000002  0.8598700000000001  0.03547000000000011  1.0000
  S   S210      1.0  0.0116  0.64013  0.96453  1.0000
  S   S211      1.0  0.9884000000000001  0.14012999999999995  0.53547  1.0000
  S   S212      1.0  0.4884  0.3598700000000001  0.46453  1.0000
  S   S213      1.0  0.03547000000000011  0.5116000000000002  0.8598700000000001  1.0000
  S   S214      1.0  0.96453  0.0116  0.64013  1.0000
  S   S215      1.0  0.53547  0.9884000000000001  0.14012999999999995  1.0000
  S   S216      1.0  0.46453  0.4884  0.3598700000000001  1.0000
  S   S217      1.0  0.2854700000000001  0.10987000000000013  0.7616  1.0000
  S   S218      1.0  0.21453  0.8901299999999999  0.2616  1.0000
  S   S219      1.0  0.78547  0.3901299999999999  0.2384  1.0000
  S   S220      1.0  0.7145300000000001  0.6098700000000001  0.7384  1.0000
  S   S221      1.0  0.10987000000000013  0.7616  0.2854700000000001  1.0000
  S   S222      1.0  0.8901299999999999  0.2616  0.21453  1.0000
  S   S223      1.0  0.3901299999999999  0.2384  0.78547  1.0000
  S   S224      1.0  0.6098700000000001  0.7384  0.7145300000000001  1.0000
  S   S225      1.0  0.7616  0.2854700000000001  0.10987000000000013  1.0000
  S   S226      1.0  0.2616  0.21453  0.8901299999999999  1.0000
  S   S227      1.0  0.2384  0.78547  0.3901299999999999  1.0000
  S   S228      1.0  0.7384  0.7145300000000001  0.6098700000000001  1.0000
  S   S229      1.0  0.3555  0.3725000000000001  0.1229  1.0000
  S   S230      1.0  0.14450000000000002  0.6275  0.6229  1.0000
  S   S231      1.0  0.6445000000000001  0.8725  0.3771  1.0000
  S   S232      1.0  0.8554999999999999  0.12749999999999995  0.8771000000000001  1.0000
  S   S233      1.0  0.1229  0.3555  0.3725000000000001  1.0000
  S   S234      1.0  0.6229  0.14450000000000002  0.6275  1.0000
  S   S235      1.0  0.3771  0.6445000000000001  0.8725  1.0000
  S   S236      1.0  0.8771000000000001  0.8554999999999999  0.12749999999999995  1.0000
  S   S237      1.0  0.3725000000000001  0.1229  0.3555  1.0000
  S   S238      1.0  0.6275  0.6229  0.14450000000000002  1.0000
  S   S239      1.0  0.8725  0.3771  0.6445000000000001  1.0000
  S   S240      1.0  0.12749999999999995  0.8771000000000001  0.8554999999999999  1.0000
  S   S241      1.0  0.6225  0.6055  0.3729  1.0000
  S   S242      1.0  0.8775000000000001  0.3945000000000001  0.8729  1.0000
  S   S243      1.0  0.12250000000000005  0.8945000000000001  0.6271  1.0000
  S   S244      1.0  0.37749999999999995  0.10549999999999994  0.1271  1.0000
  S   S245      1.0  0.6055  0.3729  0.6225  1.0000
  S   S246      1.0  0.3945000000000001  0.8729  0.8775000000000001  1.0000
  S   S247      1.0  0.8945000000000001  0.6271  0.12250000000000005  1.0000
  S   S248      1.0  0.10549999999999994  0.1271  0.37749999999999995  1.0000
  S   S249      1.0  0.3729  0.6225  0.6055  1.0000
  S   S250      1.0  0.8729  0.8775000000000001  0.3945000000000001  1.0000
  S   S251      1.0  0.6271  0.12250000000000005  0.8945000000000001  1.0000
  S   S252      1.0  0.1271  0.37749999999999995  0.10549999999999994  1.0000
  S   S253      1.0  0.8554999999999999  0.8725  0.6229  1.0000
  S   S254      1.0  0.6445000000000001  0.12749999999999995  0.1229  1.0000
  S   S255      1.0  0.14450000000000002  0.3725000000000001  0.8771000000000001  1.0000
  S   S256      1.0  0.3555  0.6275  0.3771  1.0000
  S   S257      1.0  0.6229  0.8554999999999999  0.8725  1.0000
  S   S258      1.0  0.1229  0.6445000000000001  0.12749999999999995  1.0000
  S   S259      1.0  0.8771000000000001  0.14450000000000002  0.3725000000000001  1.0000
  S   S260      1.0  0.3771  0.3555  0.6275  1.0000
  S   S261      1.0  0.8725  0.6229  0.8554999999999999  1.0000
  S   S262      1.0  0.12749999999999995  0.1229  0.6445000000000001  1.0000
  S   S263      1.0  0.3725000000000001  0.8771000000000001  0.14450000000000002  1.0000
  S   S264      1.0  0.6275  0.3771  0.3555  1.0000
  S   S265      1.0  0.12250000000000005  0.10549999999999994  0.8729  1.0000
  S   S266      1.0  0.37749999999999995  0.8945000000000001  0.3729  1.0000
  S   S267      1.0  0.6225  0.3945000000000001  0.1271  1.0000
  S   S268      1.0  0.8775000000000001  0.6055  0.6271  1.0000
  S   S269      1.0  0.10549999999999994  0.8729  0.12250000000000005  1.0000
  S   S270      1.0  0.8945000000000001  0.3729  0.37749999999999995  1.0000
  S   S271      1.0  0.3945000000000001  0.1271  0.6225  1.0000
  S   S272      1.0  0.6055  0.6271  0.8775000000000001  1.0000
  S   S273      1.0  0.8729  0.12250000000000005  0.10549999999999994  1.0000
  S   S274      1.0  0.3729  0.37749999999999995  0.8945000000000001  1.0000
  S   S275      1.0  0.1271  0.6225  0.3945000000000001  1.0000
  S   S276      1.0  0.6271  0.8775000000000001  0.6055  1.0000
  S   S277      1.0  0.4114  0.45230000000000004  0.0731  1.0000
  S   S278      1.0  0.08860000000000003  0.5477  0.5730999999999999  1.0000
  S   S279      1.0  0.5886000000000001  0.9523  0.4269  1.0000
  S   S280      1.0  0.9114  0.047699999999999965  0.9269000000000001  1.0000
  S   S281      1.0  0.0731  0.4114  0.45230000000000004  1.0000
  S   S282      1.0  0.5730999999999999  0.08860000000000003  0.5477  1.0000
  S   S283      1.0  0.4269  0.5886000000000001  0.9523  1.0000
  S   S284      1.0  0.9269000000000001  0.9114  0.047699999999999965  1.0000
  S   S285      1.0  0.45230000000000004  0.0731  0.4114  1.0000
  S   S286      1.0  0.5477  0.5730999999999999  0.08860000000000003  1.0000
  S   S287      1.0  0.9523  0.4269  0.5886000000000001  1.0000
  S   S288      1.0  0.047699999999999965  0.9269000000000001  0.9114  1.0000
  S   S289      1.0  0.7023  0.6614  0.3231  1.0000
  S   S290      1.0  0.7977000000000001  0.3386  0.8230999999999999  1.0000
  S   S291      1.0  0.20230000000000015  0.8386  0.6769000000000002  1.0000
  S   S292      1.0  0.29769999999999996  0.1614  0.1769  1.0000
  S   S293      1.0  0.6614  0.3231  0.7023  1.0000
  S   S294      1.0  0.3386  0.8230999999999999  0.7977000000000001  1.0000
  S   S295      1.0  0.8386  0.6769000000000002  0.20230000000000015  1.0000
  S   S296      1.0  0.1614  0.1769  0.29769999999999996  1.0000
  S   S297      1.0  0.3231  0.7023  0.6614  1.0000
  S   S298      1.0  0.8230999999999999  0.7977000000000001  0.3386  1.0000
  S   S299      1.0  0.6769000000000002  0.20230000000000015  0.8386  1.0000
  S   S300      1.0  0.1769  0.29769999999999996  0.1614  1.0000
  S   S301      1.0  0.9114  0.9523  0.5730999999999999  1.0000
  S   S302      1.0  0.5886000000000001  0.047699999999999965  0.0731  1.0000
  S   S303      1.0  0.08860000000000003  0.45230000000000004  0.9269000000000001  1.0000
  S   S304      1.0  0.4114  0.5477  0.4269  1.0000
  S   S305      1.0  0.5730999999999999  0.9114  0.9523  1.0000
  S   S306      1.0  0.0731  0.5886000000000001  0.047699999999999965  1.0000
  S   S307      1.0  0.9269000000000001  0.08860000000000003  0.45230000000000004  1.0000
  S   S308      1.0  0.4269  0.4114  0.5477  1.0000
  S   S309      1.0  0.9523  0.5730999999999999  0.9114  1.0000
  S   S310      1.0  0.047699999999999965  0.0731  0.5886000000000001  1.0000
  S   S311      1.0  0.45230000000000004  0.9269000000000001  0.08860000000000003  1.0000
  S   S312      1.0  0.5477  0.4269  0.4114  1.0000
  S   S313      1.0  0.20230000000000015  0.1614  0.8230999999999999  1.0000
  S   S314      1.0  0.29769999999999996  0.8386  0.3231  1.0000
  S   S315      1.0  0.7023  0.3386  0.1769  1.0000
  S   S316      1.0  0.7977000000000001  0.6614  0.6769000000000002  1.0000
  S   S317      1.0  0.1614  0.8230999999999999  0.20230000000000015  1.0000
  S   S318      1.0  0.8386  0.3231  0.29769999999999996  1.0000
  S   S319      1.0  0.3386  0.1769  0.7023  1.0000
  S   S320      1.0  0.6614  0.6769000000000002  0.7977000000000001  1.0000
  S   S321      1.0  0.8230999999999999  0.20230000000000015  0.1614  1.0000
  S   S322      1.0  0.3231  0.29769999999999996  0.8386  1.0000
  S   S323      1.0  0.1769  0.7023  0.3386  1.0000
  S   S324      1.0  0.6769000000000002  0.7977000000000001  0.6614  1.0000
  S   S325      1.0  0.42377  0.4531  0.9581  1.0000
  S   S326      1.0  0.07623000000000002  0.5468999999999999  0.45810000000000006  1.0000
  S   S327      1.0  0.57623  0.9531000000000002  0.5419  1.0000
  S   S328      1.0  0.92377  0.046900000000000004  0.0419  1.0000
  S   S329      1.0  0.9581  0.42377  0.4531  1.0000
  S   S330      1.0  0.45810000000000006  0.07623000000000002  0.5468999999999999  1.0000
  S   S331      1.0  0.5419  0.57623  0.9531000000000002  1.0000
  S   S332      1.0  0.0419  0.92377  0.046900000000000004  1.0000
  S   S333      1.0  0.4531  0.9581  0.42377  1.0000
  S   S334      1.0  0.5468999999999999  0.45810000000000006  0.07623000000000002  1.0000
  S   S335      1.0  0.9531000000000002  0.5419  0.57623  1.0000
  S   S336      1.0  0.046900000000000004  0.0419  0.92377  1.0000
  S   S337      1.0  0.7031000000000001  0.67377  0.20810000000000003  1.0000
  S   S338      1.0  0.7968999999999999  0.3262300000000001  0.7081000000000001  1.0000
  S   S339      1.0  0.20310000000000006  0.82623  0.7919  1.0000
  S   S340      1.0  0.29690000000000005  0.17376999999999998  0.29190000000000005  1.0000
  S   S341      1.0  0.67377  0.20810000000000003  0.7031000000000001  1.0000
  S   S342      1.0  0.3262300000000001  0.7081000000000001  0.7968999999999999  1.0000
  S   S343      1.0  0.82623  0.7919  0.20310000000000006  1.0000
  S   S344      1.0  0.17376999999999998  0.29190000000000005  0.29690000000000005  1.0000
  S   S345      1.0  0.20810000000000003  0.7031000000000001  0.67377  1.0000
  S   S346      1.0  0.7081000000000001  0.7968999999999999  0.3262300000000001  1.0000
  S   S347      1.0  0.7919  0.20310000000000006  0.82623  1.0000
  S   S348      1.0  0.29190000000000005  0.29690000000000005  0.17376999999999998  1.0000
  S   S349      1.0  0.92377  0.9531000000000002  0.45810000000000006  1.0000
  S   S350      1.0  0.57623  0.046900000000000004  0.9581  1.0000
  S   S351      1.0  0.07623000000000002  0.4531  0.0419  1.0000
  S   S352      1.0  0.42377  0.5468999999999999  0.5419  1.0000
  S   S353      1.0  0.45810000000000006  0.92377  0.9531000000000002  1.0000
  S   S354      1.0  0.9581  0.57623  0.046900000000000004  1.0000
  S   S355      1.0  0.0419  0.07623000000000002  0.4531  1.0000
  S   S356      1.0  0.5419  0.42377  0.5468999999999999  1.0000
  S   S357      1.0  0.9531000000000002  0.45810000000000006  0.92377  1.0000
  S   S358      1.0  0.046900000000000004  0.9581  0.57623  1.0000
  S   S359      1.0  0.4531  0.0419  0.07623000000000002  1.0000
  S   S360      1.0  0.5468999999999999  0.5419  0.42377  1.0000
  S   S361      1.0  0.20310000000000006  0.17376999999999998  0.7081000000000001  1.0000
  S   S362      1.0  0.29690000000000005  0.82623  0.20810000000000003  1.0000
  S   S363      1.0  0.7031000000000001  0.3262300000000001  0.29190000000000005  1.0000
  S   S364      1.0  0.7968999999999999  0.67377  0.7919  1.0000
  S   S365      1.0  0.17376999999999998  0.7081000000000001  0.20310000000000006  1.0000
  S   S366      1.0  0.82623  0.20810000000000003  0.29690000000000005  1.0000
  S   S367      1.0  0.3262300000000001  0.29190000000000005  0.7031000000000001  1.0000
  S   S368      1.0  0.67377  0.7919  0.7968999999999999  1.0000
  S   S369      1.0  0.7081000000000001  0.20310000000000006  0.17376999999999998  1.0000
  S   S370      1.0  0.20810000000000003  0.29690000000000005  0.82623  1.0000
  S   S371      1.0  0.29190000000000005  0.7031000000000001  0.3262300000000001  1.0000
  S   S372      1.0  0.7919  0.7968999999999999  0.67377  1.0000
  S   S373      1.0  0.4759  0.5241  0.0241  1.0000
  S   S374      1.0  0.02410000000000001  0.4759  0.5241  1.0000
  S   S375      1.0  0.5241  0.02410000000000001  0.4759  1.0000
  S   S376      1.0  0.9759  0.9759  0.9759  1.0000
  S   S377      1.0  0.7741  0.7259000000000001  0.2741  1.0000
  S   S378      1.0  0.7259000000000001  0.2741  0.7741  1.0000
  S   S379      1.0  0.2741  0.7741  0.7259000000000001  1.0000
  S   S380      1.0  0.2259  0.2259  0.2259  1.0000
  S   S381      1.0  0.9759  0.02410000000000001  0.5241  1.0000
  S   S382      1.0  0.5241  0.9759  0.0241  1.0000
  S   S383      1.0  0.02410000000000001  0.5241  0.9759  1.0000
  S   S384      1.0  0.4759  0.4759  0.4759  1.0000
  S   S385      1.0  0.2741  0.2259  0.7741  1.0000
  S   S386      1.0  0.2259  0.7741  0.2741  1.0000
  S   S387      1.0  0.7741  0.2741  0.2259  1.0000
  S   S388      1.0  0.7259000000000001  0.7259000000000001  0.7259000000000001  1.0000
