#------------------------------------------------------------------------------
#$Date: 2016-03-22 21:51:41 +0200 (Tue, 22 Mar 2016) $
#$Revision: 179026 $
#$URL: svn://www.crystallography.net/cod/cif/4/12/24/4122456.cif $
#------------------------------------------------------------------------------
#
# This file is available in the Crystallography Open Database (COD),
# http://www.crystallography.net/
#
# All data on this site have been placed in the public domain by the
# contributors.
#
data_4122456
loop_
_publ_author_name
'Hadler, Amelia B.'
'Yannello, Vincent J.'
'Bi, Wenli'
'Alp, E. Ercan'
'Fredrickson, Daniel C.'
_publ_section_title
;
 \p-Conjugation in Gd13Fe10C13 and Its Oxycarbide: Unexpected Connections
 between Complex Carbides and Simple Organic Molecules.
;
_journal_issue                   34
_journal_name_full               'Journal of the American Chemical Society'
_journal_page_first              12073
_journal_paper_doi               10.1021/ja505868w
_journal_volume                  136
_journal_year                    2014
_chemical_formula_sum            'C12.02 Fe10 Gd13 O0.98'
_chemical_formula_weight         2762.8
_chemical_name_common            Gd13Fe10C12.02O0.98
_chemical_name_systematic        ' ?'
_space_group_IT_number           43
_symmetry_cell_setting           orthorhombic
_symmetry_Int_Tables_number      43
_symmetry_space_group_name_Hall  'F -2d 2'
_symmetry_space_group_name_H-M   'F 2 d d'
_cell_angle_alpha                90
_cell_angle_beta                 90
_cell_angle_gamma                90
_cell_formula_units_Z            8
_cell_length_a                   9.2299(5)
_cell_length_b                   16.0158(8)
_cell_length_c                   31.6935(14)
_cell_measurement_reflns_used    3720
_cell_measurement_temperature    295.5(3)
_cell_measurement_theta_max      29.2770
_cell_measurement_theta_min      5.0730
_cell_volume                     4685.1(4)
_diffrn_ambient_temperature      295.5(3)
_diffrn_detector_area_resol_mean 5.1937
_diffrn_measured_fraction_theta_full 0.98
_diffrn_measured_fraction_theta_max 0.9
_diffrn_measurement_device_type  'SuperNova, Dual, Cu at zero, Atlas'
_diffrn_measurement_method       '\w scans'
_diffrn_radiation_monochromator  mirror
_diffrn_radiation_probe          x-ray
_diffrn_radiation_source         'SuperNova (Mo) X-ray Source'
_diffrn_radiation_type           'Mo K\a'
_diffrn_radiation_wavelength     0.7107
_diffrn_reflns_av_R_equivalents  0.0304
_diffrn_reflns_av_unetI/netI     0.0365
_diffrn_reflns_limit_h_max       11
_diffrn_reflns_limit_h_min       -12
_diffrn_reflns_limit_k_max       21
_diffrn_reflns_limit_k_min       -22
_diffrn_reflns_limit_l_max       42
_diffrn_reflns_limit_l_min       -43
_diffrn_reflns_number            6437
_diffrn_reflns_theta_full        27.86
_diffrn_reflns_theta_max         29.47
_diffrn_reflns_theta_min         3.2
_diffrn_standards_number         0
_exptl_absorpt_coefficient_mu    42.171
_exptl_absorpt_correction_T_max  1.00000
_exptl_absorpt_correction_T_min  0.66152
_exptl_absorpt_correction_type   'multi-scan and spherical'
_exptl_absorpt_process_details
;
CrysAlisPro, Agilent Technologies,
Version 1.171.36.24 (release 03-12-2012 CrysAlis171 .NET)
(compiled Dec  3 2012,18:21:49)
Empirical absorption correction using spherical harmonics,
 implemented in SCALE3 ABSPACK scaling algorithm.
;
_exptl_crystal_colour            'metallic grey'
_exptl_crystal_density_diffrn    7.8312
_exptl_crystal_density_method    'not measured'
_exptl_crystal_description       Irregular
_exptl_crystal_F_000             9376
_exptl_crystal_size_max          0.0450
_exptl_crystal_size_mid          0.0412
_exptl_crystal_size_min          0.0176
_refine_diff_density_max         1.47
_refine_diff_density_min         -1.04
_refine_ls_abs_structure_details
'  1057 of Friedel pairs used in the refinement'
_refine_ls_abs_structure_Flack   0.02(4)
_refine_ls_extinction_method     none
_refine_ls_goodness_of_fit_gt    1.07
_refine_ls_goodness_of_fit_ref   1.06
_refine_ls_number_constraints    15
_refine_ls_number_parameters     129
_refine_ls_number_reflns         2616
_refine_ls_number_restraints     0
_refine_ls_R_factor_all          0.0274
_refine_ls_R_factor_gt           0.0243
_refine_ls_shift/su_max          0.0255
_refine_ls_shift/su_mean         0.0022
_refine_ls_structure_factor_coef Fsqd
_refine_ls_weighting_details     w=1/(\s^2^(I)+0.0004I^2^)
_refine_ls_weighting_scheme      sigma
_refine_ls_wR_factor_gt          0.0507
_refine_ls_wR_factor_ref         0.0523
_reflns_number_gt                2403
_reflns_number_total             2616
_reflns_threshold_expression     I>3\s(I)
_cod_data_source_file            ja505868w_si_002.cif
_cod_data_source_block           I
_cod_depositor_comments
;
The following automatic conversions were performed:

'_diffrn_radiation_probe' value 'X-ray' changed to 'x-ray' according
to
/usr/data/users/saulius/crontab/automatic-downloads/rss-feeds/ACS/lib/dictionaries/cif_core.dic
dictionary named 'cif_core.dic' version 2.4.2 from 2011-04-26.

Automatic conversion script
Id: cif_fix_values 2281 2013-09-26 08:29:07Z andrius 

 Adding full bibliography for 4122456.cif.
;
_cod_database_code               4122456
loop_
_symmetry_equiv_pos_site_id
_symmetry_equiv_pos_as_xyz
1 x,y,z
2 x,-y,-z
3 x+1/4,y+1/4,-z+1/4
4 x+1/4,-y+1/4,z+1/4
5 x,y+1/2,z+1/2
6 x,-y+1/2,-z+1/2
7 x+1/4,y+3/4,-z+3/4
8 x+1/4,-y+3/4,z+3/4
9 x+1/2,y,z+1/2
10 x+1/2,-y,-z+1/2
11 x+3/4,y+1/4,-z+3/4
12 x+3/4,-y+1/4,z+3/4
13 x+1/2,y+1/2,z
14 x+1/2,-y+1/2,-z
15 x+3/4,y+3/4,-z+1/4
16 x+3/4,-y+3/4,z+1/4
loop_
_atom_site_label
_atom_site_type_symbol
_atom_site_fract_x
_atom_site_fract_y
_atom_site_fract_z
_atom_site_adp_type
_atom_site_U_iso_or_equiv
_atom_site_site_symmetry_multiplicity
_atom_site_occupancy
_atom_site_calc_flag
Gd1 Gd 0.09311(8) 0 0 Uani 0.0117(2) 8 1 d
Gd2 Gd 0.28557(6) 0.11473(4) 0.925578(16) Uani 0.01118(15) 16 1 d
Gd3 Gd 0.27868(7) 0.12055(4) 0.087443(16) Uani 0.01153(15) 16 1 d
Gd4 Gd 0.55399(6) 0.84732(4) 0.997977(17) Uani 0.01179(16) 16 1 d
Gd5 Gd 0.65018(6) 0.08638(4) 0.809615(17) Uani 0.01156(16) 16 1 d
Gd6 Gd 0.14034(6) 0.08150(4) 0.190732(17) Uani 0.01142(16) 16 1 d
Gd7 Gd 0.63856(6) 0.99964(4) 0.915395(16) Uani 0.01220(16) 16 1 d
Fe1 Fe 0.7891(3) 0 0 Uani 0.0111(7) 8 1 d
Fe2 Fe 0.59614(19) 0.19097(11) 0.89926(5) Uani 0.0112(4) 16 1 d
Fe3 Fe 0.4001(3) 0 0 Uani 0.0120(6) 8 1 d
Fe4 Fe 0.20186(20) 0.19358(11) 0.00545(5) Uani 0.0107(5) 16 1 d
Fe5 Fe 0.25702(19) 0.25297(10) 0.15148(5) Uani 0.0115(5) 16 1 d
Fe6 Fe 0.3606(2) 0.03470(11) 0.84702(5) Uani 0.0107(4) 16 1 d
C1 C 0.1421(15) 0.2496(8) 0.0530(3) Uiso 0.0129(9) 16 1 d
C2 C 0.4067(14) 0.9878(8) 0.7963(3) Uiso 0.0129(9) 16 1 d
C3 C 0.4355(13) 0.2365(8) 0.1247(4) Uiso 0.0129(9) 16 1 d
C4 C 0.4844(13) 0.1113(8) 0.8722(4) Uiso 0.0129(9) 16 1 d
C5 C 0.3032(13) 0.0970(7) 0.0044(3) Uiso 0.0129(9) 16 0.75(6) d
O5 O 0.3032(13) 0.0970(7) 0.0044(3) Uiso 0.0129(9) 16 0.25(6) d
C6 C 0.594(2) 0 0 Uiso 0.0129(9) 8 1 d
C7 C 0.1443(14) 0.2467(7) 0.1994(3) Uiso 0.0129(9) 16 0.76(6) d
O7 O 0.1443(14) 0.2467(7) 0.1994(3) Uiso 0.0129(9) 16 0.24(6) d
loop_
_atom_site_aniso_label
_atom_site_aniso_type_symbol
_atom_site_aniso_U_11
_atom_site_aniso_U_22
_atom_site_aniso_U_33
_atom_site_aniso_U_12
_atom_site_aniso_U_13
_atom_site_aniso_U_23
Gd1 Gd 0.0099(4) 0.0134(4) 0.0119(4) 0 0 0.0002(3)
Gd2 Gd 0.0125(3) 0.0118(3) 0.0093(2) 0.0002(2) 0.0013(2) -0.0015(2)
Gd3 Gd 0.0142(3) 0.0110(3) 0.0093(2) -0.0006(2) -0.0009(2) 0.0005(2)
Gd4 Gd 0.0132(3) 0.0099(3) 0.0123(3) 0.0027(2) 0.0000(2) 0.0001(2)
Gd5 Gd 0.0117(3) 0.0111(3) 0.0119(2) 0.0004(2) 0.0012(2) -0.0004(2)
Gd6 Gd 0.0117(3) 0.0109(3) 0.0117(2) 0.0002(2) 0.0005(2) -0.0009(2)
Gd7 Gd 0.0126(3) 0.0124(3) 0.0116(2) 0.0008(2) -0.0008(2) -0.0002(2)
Fe1 Fe 0.0091(12) 0.0142(12) 0.0100(11) 0 0 -0.0004(8)
Fe2 Fe 0.0132(8) 0.0102(8) 0.0102(7) -0.0009(7) -0.0018(7) -0.0009(6)
Fe3 Fe 0.0123(12) 0.0077(10) 0.0161(11) 0 0 -0.0015(10)
Fe4 Fe 0.0156(9) 0.0094(8) 0.0072(7) 0.0040(7) 0.0002(7) 0.0005(7)
Fe5 Fe 0.0131(9) 0.0115(8) 0.0100(7) -0.0006(7) 0.0009(6) -0.0004(6)
Fe6 Fe 0.0107(8) 0.0122(8) 0.0092(7) -0.0002(7) 0.0014(7) -0.0012(6)
loop_
_atom_type_symbol
_atom_type_scat_dispersion_real
_atom_type_scat_dispersion_imag
_atom_type_scat_source
C 0.0033 0.0016 'International Tables Vol C tables 4.2.6.8 and 6.1.1.1'
Fe 0.3463 0.8444 'International Tables Vol C tables 4.2.6.8 and 6.1.1.1'
Gd -0.1653 3.9035 'International Tables Vol C tables 4.2.6.8 and 6.1.1.1'
O 0.0106 0.0060 'International Tables Vol C tables 4.2.6.8 and 6.1.1.1'
loop_
_geom_angle_atom_site_label_1
_geom_angle_atom_site_label_2
_geom_angle_atom_site_label_3
_geom_angle_site_symmetry_1
_geom_angle_site_symmetry_3
_geom_angle
Gd2 Gd1 Gd2 1_554 2_556 118.57(3)
Gd2 Gd1 Gd5 1_554 7_445 105.933(13)
Gd2 Gd1 Gd5 1_554 4_454 102.628(13)
Gd2 Gd1 Fe1 1_554 1_455 120.716(14)
Gd2 Gd1 Fe3 1_554 . 59.284(14)
Gd2 Gd1 C5 1_554 . 46.4(2)
Gd2 Gd1 C5 1_554 2_555 83.9(2)
Gd2 Gd1 C7 1_554 15_445 147.4(3)
Gd2 Gd1 C7 1_554 12_454 85.8(3)
Gd2 Gd1 Gd5 2_556 7_445 102.628(13)
Gd2 Gd1 Gd5 2_556 4_454 105.933(13)
Gd2 Gd1 Fe1 2_556 1_455 120.716(14)
Gd2 Gd1 Fe3 2_556 . 59.284(14)
Gd2 Gd1 C5 2_556 . 83.9(2)
Gd2 Gd1 C5 2_556 2_555 46.4(2)
Gd2 Gd1 C7 2_556 15_445 85.8(3)
Gd2 Gd1 C7 2_556 12_454 147.4(3)
Gd5 Gd1 Gd5 7_445 4_454 122.27(2)
Gd5 Gd1 Fe1 7_445 1_455 61.137(14)
Gd5 Gd1 Fe3 7_445 . 118.863(14)
Gd5 Gd1 C5 7_445 . 148.0(2)
Gd5 Gd1 C5 7_445 2_555 84.5(3)
Gd5 Gd1 C7 7_445 15_445 87.6(3)
Gd5 Gd1 C7 7_445 12_454 46.8(3)
Gd5 Gd1 Fe1 4_454 1_455 61.137(14)
Gd5 Gd1 Fe3 4_454 . 118.863(14)
Gd5 Gd1 C5 4_454 . 84.5(3)
Gd5 Gd1 C5 4_454 2_555 148.0(2)
Gd5 Gd1 C7 4_454 15_445 46.8(3)
Gd5 Gd1 C7 4_454 12_454 87.6(3)
Fe1 Gd1 Fe3 1_455 . 180.0(5)
Fe1 Gd1 C5 1_455 . 141.2(3)
Fe1 Gd1 C5 1_455 2_555 141.2(3)
Fe1 Gd1 C7 1_455 15_445 41.2(3)
Fe1 Gd1 C7 1_455 12_454 41.2(3)
Fe3 Gd1 C5 . . 38.8(3)
Fe3 Gd1 C5 . 2_555 38.8(3)
Fe3 Gd1 C7 . 15_445 138.8(3)
Fe3 Gd1 C7 . 12_454 138.8(3)
C5 Gd1 C5 . 2_555 77.7(4)
C5 Gd1 C7 . 15_445 124.3(3)
C5 Gd1 C7 . 12_454 127.6(3)
C5 Gd1 C7 2_555 15_445 127.6(3)
C5 Gd1 C7 2_555 12_454 124.3(3)
C7 Gd1 C7 15_445 12_454 82.4(4)
Gd1 Gd2 Gd3 1_556 12_455 102.71(2)
Gd1 Gd2 Gd4 1_556 2_567 89.079(18)
Gd1 Gd2 Gd5 1_556 11_456 124.180(17)
Gd1 Gd2 Gd7 1_556 1_545 104.004(19)
Gd1 Gd2 Gd7 1_556 11_446 164.03(2)
Gd1 Gd2 Fe3 1_556 1_556 50.19(5)
Gd1 Gd2 Fe4 1_556 1_556 60.50(4)
Gd1 Gd2 Fe6 1_556 . 118.25(4)
Gd1 Gd2 C2 1_556 11_446 86.0(3)
Gd1 Gd2 C3 1_556 12_455 84.5(3)
Gd1 Gd2 C4 1_556 . 145.4(3)
Gd1 Gd2 C5 1_556 1_556 45.7(3)
Gd3 Gd2 Gd4 12_455 2_567 165.38(2)
Gd3 Gd2 Gd5 12_455 11_456 102.564(19)
Gd3 Gd2 Gd7 12_455 1_545 121.746(19)
Gd3 Gd2 Gd7 12_455 11_446 62.537(15)
Gd3 Gd2 Fe3 12_455 1_556 144.92(4)
Gd3 Gd2 Fe4 12_455 1_556 117.32(4)
Gd3 Gd2 Fe6 12_455 . 61.77(4)
Gd3 Gd2 C2 12_455 11_446 85.0(3)
Gd3 Gd2 C3 12_455 12_455 45.8(3)
Gd3 Gd2 C4 12_455 . 87.7(3)
Gd3 Gd2 C5 12_455 1_556 143.4(3)
Gd4 Gd2 Gd5 2_567 11_456 63.234(16)
Gd4 Gd2 Gd7 2_567 1_545 62.179(16)
Gd4 Gd2 Gd7 2_567 11_446 104.66(2)
Gd4 Gd2 Fe3 2_567 1_556 49.69(3)
Gd4 Gd2 Fe4 2_567 1_556 61.10(4)
Gd4 Gd2 Fe6 2_567 . 120.13(4)
Gd4 Gd2 C2 2_567 11_446 87.3(3)
Gd4 Gd2 C3 2_567 12_455 145.9(3)
Gd4 Gd2 C4 2_567 . 87.3(3)
Gd4 Gd2 C5 2_567 1_556 44.9(3)
Gd5 Gd2 Gd7 11_456 1_545 103.388(19)
Gd5 Gd2 Gd7 11_456 11_446 58.243(15)
Gd5 Gd2 Fe3 11_456 1_556 111.28(3)
Gd5 Gd2 Fe4 11_456 1_556 63.69(4)
Gd5 Gd2 Fe6 11_456 . 117.57(4)
Gd5 Gd2 C2 11_456 11_446 48.1(3)
Gd5 Gd2 C3 11_456 12_455 144.4(3)
Gd5 Gd2 C4 11_456 . 84.2(3)
Gd5 Gd2 C5 11_456 1_556 87.9(3)
Gd7 Gd2 Gd7 1_545 11_446 89.817(17)
Gd7 Gd2 Fe3 1_545 1_556 59.37(4)
Gd7 Gd2 Fe4 1_545 1_556 120.92(4)
Gd7 Gd2 Fe6 1_545 . 59.97(4)
Gd7 Gd2 C2 1_545 11_446 147.2(3)
Gd7 Gd2 C3 1_545 12_455 86.9(3)
Gd7 Gd2 C4 1_545 . 45.0(3)
Gd7 Gd2 C5 1_545 1_556 88.5(3)
Gd7 Gd2 Fe3 11_446 1_556 145.73(5)
Gd7 Gd2 Fe4 11_446 1_556 119.04(4)
Gd7 Gd2 Fe6 11_446 . 61.87(4)
Gd7 Gd2 C2 11_446 11_446 86.5(3)
Gd7 Gd2 C3 11_446 12_455 88.3(3)
Gd7 Gd2 C4 11_446 . 45.7(3)
Gd7 Gd2 C5 11_446 1_556 144.7(3)
Fe3 Gd2 Fe4 1_556 1_556 72.26(4)
Fe3 Gd2 Fe6 1_556 . 107.72(4)
Fe3 Gd2 C2 1_556 11_446 110.8(3)
Fe3 Gd2 C3 1_556 12_455 103.3(3)
Fe3 Gd2 C4 1_556 . 104.2(3)
Fe3 Gd2 C5 1_556 1_556 34.5(3)
Fe4 Gd2 Fe6 1_556 . 178.45(6)
Fe4 Gd2 C2 1_556 11_446 38.5(3)
Fe4 Gd2 C3 1_556 12_455 138.5(3)
Fe4 Gd2 C4 1_556 . 142.0(3)
Fe4 Gd2 C5 1_556 1_556 37.8(3)
Fe6 Gd2 C2 . 11_446 141.5(3)
Fe6 Gd2 C3 . 12_455 40.0(3)
Fe6 Gd2 C4 . . 39.5(3)
Fe6 Gd2 C5 . 1_556 142.2(3)
C2 Gd2 C3 11_446 12_455 125.5(4)
C2 Gd2 C4 11_446 . 128.1(4)
C2 Gd2 C5 11_446 1_556 76.3(4)
C3 Gd2 C4 12_455 . 79.5(4)
C3 Gd2 C5 12_455 1_556 126.8(4)
C4 Gd2 C5 . 1_556 128.5(4)
Gd2 Gd3 Gd4 4_554 2_566 95.905(19)
Gd2 Gd3 Gd5 4_554 4_454 141.80(2)
Gd2 Gd3 Gd6 4_554 . 62.901(15)
Gd2 Gd3 Gd6 4_554 3_555 86.804(18)
Gd2 Gd3 Fe4 4_554 . 143.48(4)
Gd2 Gd3 Fe5 4_554 . 58.18(4)
Gd2 Gd3 Fe5 4_554 15_445 117.83(4)
Gd2 Gd3 C1 4_554 . 124.7(3)
Gd2 Gd3 C3 4_554 . 42.1(3)
Gd2 Gd3 C3 4_554 15_445 85.2(3)
Gd2 Gd3 C5 4_554 . 134.8(3)
Gd4 Gd3 Gd5 2_566 4_454 116.493(19)
Gd4 Gd3 Gd6 2_566 . 158.28(2)
Gd4 Gd3 Gd6 2_566 3_555 60.258(16)
Gd4 Gd3 Fe4 2_566 . 57.99(4)
Gd4 Gd3 Fe5 2_566 . 116.44(4)
Gd4 Gd3 Fe5 2_566 15_445 134.51(4)
Gd4 Gd3 C1 2_566 . 85.3(3)
Gd4 Gd3 C3 2_566 . 81.6(3)
Gd4 Gd3 C3 2_566 15_445 132.0(3)
Gd4 Gd3 C5 2_566 . 41.4(2)
Gd5 Gd3 Gd6 4_454 . 84.995(18)
Gd5 Gd3 Gd6 4_454 3_555 92.069(18)
Gd5 Gd3 Fe4 4_454 . 58.83(4)
Gd5 Gd3 Fe5 4_454 . 88.03(4)
Gd5 Gd3 Fe5 4_454 15_445 51.85(3)
Gd5 Gd3 C1 4_454 . 45.8(3)
Gd5 Gd3 C3 4_454 . 119.9(3)
Gd5 Gd3 C3 4_454 15_445 87.2(3)
Gd5 Gd3 C5 4_454 . 82.5(2)
Gd6 Gd3 Gd6 . 3_555 119.24(2)
Gd6 Gd3 Fe4 . . 142.66(4)
Gd6 Gd3 Fe5 . . 57.95(4)
Gd6 Gd3 Fe5 . 15_445 60.60(3)
Gd6 Gd3 C1 . . 110.1(2)
Gd6 Gd3 C3 . . 84.8(3)
Gd6 Gd3 C3 . 15_445 46.8(3)
Gd6 Gd3 C5 . . 155.5(2)
Gd6 Gd3 Fe4 3_555 . 58.81(4)
Gd6 Gd3 Fe5 3_555 . 61.31(4)
Gd6 Gd3 Fe5 3_555 15_445 143.66(4)
Gd6 Gd3 C1 3_555 . 46.5(3)
Gd6 Gd3 C3 3_555 . 45.6(3)
Gd6 Gd3 C3 3_555 15_445 166.0(3)
Gd6 Gd3 C5 3_555 . 82.3(2)
Fe4 Gd3 Fe5 . . 107.87(5)
Fe4 Gd3 Fe5 . 15_445 98.30(5)
Fe4 Gd3 C1 . . 38.0(2)
Fe4 Gd3 C3 . . 104.4(3)
Fe4 Gd3 C3 . 15_445 131.0(3)
Fe4 Gd3 C5 . . 37.2(2)
Fe5 Gd3 Fe5 . 15_445 107.42(5)
Fe5 Gd3 C1 . . 71.9(2)
Fe5 Gd3 C3 . . 38.7(3)
Fe5 Gd3 C3 . 15_445 104.7(3)
Fe5 Gd3 C5 . . 142.0(2)
Fe5 Gd3 C1 15_445 . 97.6(3)
Fe5 Gd3 C3 15_445 . 143.9(3)
Fe5 Gd3 C3 15_445 15_445 36.4(3)
Fe5 Gd3 C5 15_445 . 95.3(3)
C1 Gd3 C3 . . 84.1(4)
C1 Gd3 C3 . 15_445 132.4(4)
C1 Gd3 C5 . . 75.2(3)
C3 Gd3 C3 . 15_445 123.8(4)
C3 Gd3 C5 . . 119.7(4)
C3 Gd3 C5 15_445 . 111.4(4)
Gd2 Gd4 Gd3 2_567 2_566 89.788(18)
Gd2 Gd4 Gd5 2_567 7_556 163.78(2)
Gd2 Gd4 Gd6 2_567 15_556 104.066(19)
Gd2 Gd4 Gd6 2_567 8_555 100.568(19)
Gd2 Gd4 Gd7 2_567 . 121.81(2)
Gd2 Gd4 Fe3 2_567 1_566 58.77(3)
Gd2 Gd4 Fe4 2_567 13_556 115.66(4)
Gd2 Gd4 C1 2_567 13_556 81.7(3)
Gd2 Gd4 C2 2_567 7_546 142.6(3)
Gd2 Gd4 C5 2_567 2_566 45.7(2)
Gd2 Gd4 C6 2_567 1_566 85.2(3)
Gd3 Gd4 Gd5 2_566 7_556 103.689(18)
Gd3 Gd4 Gd6 2_566 15_556 164.78(2)
Gd3 Gd4 Gd6 2_566 8_555 58.467(15)
Gd3 Gd4 Gd7 2_566 . 62.410(16)
Gd3 Gd4 Fe3 2_566 1_566 63.73(3)
Gd3 Gd4 Fe4 2_566 13_556 120.51(4)
Gd3 Gd4 C1 2_566 13_556 144.8(3)
Gd3 Gd4 C2 2_566 7_546 86.9(3)
Gd3 Gd4 C5 2_566 2_566 45.3(2)
Gd3 Gd4 C6 2_566 1_566 89.1(3)
Gd5 Gd4 Gd6 7_556 15_556 61.665(16)
Gd5 Gd4 Gd6 7_556 8_555 94.250(18)
Gd5 Gd4 Gd7 7_556 . 59.515(16)
Gd5 Gd4 Fe3 7_556 1_566 119.19(4)
Gd5 Gd4 Fe4 7_556 13_556 65.23(4)
Gd5 Gd4 C1 7_556 13_556 92.0(3)
Gd5 Gd4 C2 7_556 7_546 48.9(3)
Gd5 Gd4 C5 7_556 2_566 144.2(2)
Gd5 Gd4 C6 7_556 1_566 86.0(4)
Gd6 Gd4 Gd6 15_556 8_555 123.34(2)
Gd6 Gd4 Gd7 15_556 . 104.116(19)
Gd6 Gd4 Fe3 15_556 1_566 118.18(4)
Gd6 Gd4 Fe4 15_556 13_556 59.13(4)
Gd6 Gd4 C1 15_556 13_556 46.1(3)
Gd6 Gd4 C2 15_556 7_546 85.8(3)
Gd6 Gd4 C5 15_556 2_566 146.1(2)
Gd6 Gd4 C6 15_556 1_566 85.9(4)
Gd6 Gd4 Gd7 8_555 . 104.561(18)
Gd6 Gd4 Fe3 8_555 1_566 118.29(5)
Gd6 Gd4 Fe4 8_555 13_556 64.22(4)
Gd6 Gd4 C1 8_555 13_556 89.5(3)
Gd6 Gd4 C2 8_555 7_546 47.3(3)
Gd6 Gd4 C5 8_555 2_566 83.3(3)
Gd6 Gd4 C6 8_555 1_566 146.7(2)
Gd7 Gd4 Fe3 . 1_566 63.08(3)
Gd7 Gd4 Fe4 . 13_556 122.51(4)
Gd7 Gd4 C1 . 13_556 148.5(3)
Gd7 Gd4 C2 . 7_546 89.1(3)
Gd7 Gd4 C5 . 2_566 86.4(2)
Gd7 Gd4 C6 . 1_566 47.80(7)
Fe3 Gd4 Fe4 1_566 13_556 173.79(4)
Fe3 Gd4 C1 1_566 13_556 133.9(3)
Fe3 Gd4 C2 1_566 7_546 146.1(3)
Fe3 Gd4 C5 1_566 2_566 38.9(3)
Fe3 Gd4 C6 1_566 1_566 38.7(4)
Fe4 Gd4 C1 13_556 13_556 39.9(3)
Fe4 Gd4 C2 13_556 7_546 40.0(3)
Fe4 Gd4 C5 13_556 2_566 140.0(3)
Fe4 Gd4 C6 13_556 1_566 142.0(4)
C1 Gd4 C2 13_556 7_546 79.8(4)
C1 Gd4 C5 13_556 2_566 123.6(4)
C1 Gd4 C6 13_556 1_566 123.8(4)
C2 Gd4 C5 7_546 2_566 127.1(4)
C2 Gd4 C6 7_546 1_566 131.9(4)
C5 Gd4 C6 2_566 1_566 77.5(5)
Gd1 Gd5 Gd2 11_555 7_546 151.227(19)
Gd1 Gd5 Gd3 11_555 12_555 61.959(16)
Gd1 Gd5 Gd4 11_555 11_446 97.536(19)
Gd1 Gd5 Gd7 11_555 1_545 139.38(2)
Gd1 Gd5 Gd7 11_555 11_446 85.499(18)
Gd1 Gd5 Fe5 11_555 14_556 56.36(3)
Gd1 Gd5 Fe6 11_555 . 144.88(4)
Gd1 Gd5 C1 11_555 12_555 85.5(3)
Gd1 Gd5 C4 11_555 . 125.5(3)
Gd2 Gd5 Gd3 7_546 12_555 114.73(2)
Gd2 Gd5 Gd4 7_546 11_446 82.052(17)
Gd2 Gd5 Gd7 7_546 1_545 60.775(15)
Gd2 Gd5 Gd7 7_546 11_446 117.83(2)
Gd2 Gd5 Fe5 7_546 14_556 148.38(4)
Gd2 Gd5 Fe6 7_546 . 56.14(4)
Gd2 Gd5 C1 7_546 12_555 75.7(3)
Gd2 Gd5 C4 7_546 . 83.1(3)
Gd3 Gd5 Gd4 12_555 11_446 159.41(2)
Gd3 Gd5 Gd7 12_555 1_545 82.997(17)
Gd3 Gd5 Gd7 12_555 11_446 116.33(2)
Gd3 Gd5 Fe5 12_555 14_556 55.28(4)
Gd3 Gd5 Fe6 12_555 . 142.65(4)
Gd3 Gd5 C1 12_555 12_555 46.3(3)
Gd3 Gd5 C4 12_555 . 110.9(3)
Gd4 Gd5 Gd7 11_446 1_545 116.75(2)
Gd4 Gd5 Gd7 11_446 11_446 59.943(16)
Gd4 Gd5 Fe5 11_446 14_556 116.43(4)
Gd4 Gd5 Fe6 11_446 . 56.18(3)
Gd4 Gd5 C1 11_446 12_555 136.2(2)
Gd4 Gd5 C4 11_446 . 81.8(3)
Gd7 Gd5 Gd7 1_545 11_446 93.110(18)
Gd7 Gd5 Fe5 1_545 14_556 87.63(4)
Gd7 Gd5 Fe6 1_545 . 60.62(3)
Gd7 Gd5 C1 1_545 12_555 84.1(2)
Gd7 Gd5 C4 1_545 . 47.2(3)
Gd7 Gd5 Fe5 11_446 14_556 61.08(4)
Gd7 Gd5 Fe6 11_446 . 61.84(4)
Gd7 Gd5 C1 11_446 12_555 162.6(3)
Gd7 Gd5 C4 11_446 . 47.0(3)
Fe5 Gd5 Fe6 14_556 . 111.10(5)
Fe5 Gd5 C1 14_556 12_555 101.6(3)
Fe5 Gd5 C4 14_556 . 75.2(3)
Fe6 Gd5 C1 . 12_555 129.4(3)
Fe6 Gd5 C4 . . 37.5(3)
C1 Gd5 C4 12_555 . 131.0(4)
Gd3 Gd6 Gd3 . 15_445 92.229(18)
Gd3 Gd6 Gd4 . 3_446 140.88(2)
Gd3 Gd6 Gd4 . 16_454 115.98(2)
Gd3 Gd6 Gd7 . 4_464 84.047(17)
Gd3 Gd6 Fe2 . 4_454 86.77(3)
Gd3 Gd6 Fe5 . . 51.16(3)
Gd3 Gd6 Fe6 . 2_556 60.08(3)
Gd3 Gd6 C1 . 15_445 117.7(2)
Gd3 Gd6 C3 . 15_445 46.8(3)
Gd3 Gd6 C7 . . 85.1(2)
Gd3 Gd6 Gd4 15_445 3_446 87.390(18)
Gd3 Gd6 Gd4 15_445 16_454 61.275(16)
Gd3 Gd6 Gd7 15_445 4_464 116.90(2)
Gd3 Gd6 Fe2 15_445 4_454 62.05(4)
Gd3 Gd6 Fe5 15_445 . 142.69(4)
Gd3 Gd6 Fe6 15_445 2_556 61.28(4)
Gd3 Gd6 C1 15_445 15_445 46.7(3)
Gd3 Gd6 C3 15_445 15_445 46.3(3)
Gd3 Gd6 C7 15_445 . 162.1(3)
Gd4 Gd6 Gd4 3_446 16_454 97.975(18)
Gd4 Gd6 Gd7 3_446 4_464 61.803(16)
Gd4 Gd6 Fe2 3_446 4_454 58.75(3)
Gd4 Gd6 Fe5 3_446 . 115.53(4)
Gd4 Gd6 Fe6 3_446 2_556 145.66(4)
Gd4 Gd6 C1 3_446 15_445 42.5(3)
Gd4 Gd6 C3 3_446 15_445 126.6(3)
Gd4 Gd6 C7 3_446 . 83.6(3)
Gd4 Gd6 Gd7 16_454 4_464 159.57(2)
Gd4 Gd6 Fe2 16_454 4_454 118.94(4)
Gd4 Gd6 Fe5 16_454 . 135.64(4)
Gd4 Gd6 Fe6 16_454 2_556 56.04(3)
Gd4 Gd6 C1 16_454 15_445 86.2(3)
Gd4 Gd6 C3 16_454 15_445 82.7(3)
Gd4 Gd6 C7 16_454 . 135.3(2)
Gd7 Gd6 Fe2 4_464 4_454 54.85(4)
Gd7 Gd6 Fe5 4_464 . 59.59(3)
Gd7 Gd6 Fe6 4_464 2_556 143.22(4)
Gd7 Gd6 C1 4_464 15_445 80.4(3)
Gd7 Gd6 C3 4_464 15_445 111.0(3)
Gd7 Gd6 C7 4_464 . 45.2(3)
Fe2 Gd6 Fe5 4_454 . 103.54(5)
Fe2 Gd6 Fe6 4_454 2_556 111.05(5)
Fe2 Gd6 C1 4_454 15_445 36.9(2)
Fe2 Gd6 C3 4_454 15_445 74.3(3)
Fe2 Gd6 C7 4_454 . 100.1(3)
Fe5 Gd6 Fe6 . 2_556 98.56(5)
Fe5 Gd6 C1 . 15_445 138.2(3)
Fe5 Gd6 C3 . 15_445 97.9(3)
Fe5 Gd6 C7 . . 35.1(2)
Fe6 Gd6 C1 2_556 15_445 108.0(3)
Fe6 Gd6 C3 2_556 15_445 38.1(3)
Fe6 Gd6 C7 2_556 . 130.4(3)
C1 Gd6 C3 15_445 15_445 84.7(4)
C1 Gd6 C7 15_445 . 119.8(4)
C3 Gd6 C7 15_445 . 131.3(3)
Gd2 Gd7 Gd2 1_565 7_556 97.454(18)
Gd2 Gd7 Gd4 1_565 . 94.622(18)
Gd2 Gd7 Gd5 1_565 1_565 85.252(17)
Gd2 Gd7 Gd5 1_565 7_556 155.15(2)
Gd2 Gd7 Gd6 1_565 12_565 99.758(19)
Gd2 Gd7 Fe1 1_565 1_566 108.77(4)
Gd2 Gd7 Fe2 1_565 1_565 54.94(3)
Gd2 Gd7 Fe2 1_565 7_556 140.98(4)
Gd2 Gd7 C4 1_565 1_565 41.6(3)
Gd2 Gd7 C4 1_565 7_556 137.2(3)
Gd2 Gd7 C7 1_565 12_565 137.9(2)
Gd2 Gd7 Gd4 7_556 . 96.450(19)
Gd2 Gd7 Gd5 7_556 1_565 60.982(15)
Gd2 Gd7 Gd5 7_556 7_556 85.480(18)
Gd2 Gd7 Gd6 7_556 12_565 139.57(2)
Gd2 Gd7 Fe1 7_556 1_566 143.65(2)
Gd2 Gd7 Fe2 7_556 1_565 114.15(3)
Gd2 Gd7 Fe2 7_556 7_556 56.30(4)
Gd2 Gd7 C4 7_556 1_565 81.7(3)
Gd2 Gd7 C4 7_556 7_556 42.0(3)
Gd2 Gd7 C7 7_556 12_565 124.5(2)
Gd4 Gd7 Gd5 . 1_565 157.10(2)
Gd4 Gd7 Gd5 . 7_556 60.542(16)
Gd4 Gd7 Gd6 . 12_565 118.126(19)
Gd4 Gd7 Fe1 . 1_566 57.64(3)
Gd4 Gd7 Fe2 . 1_565 137.90(4)
Gd4 Gd7 Fe2 . 7_556 114.93(4)
Gd4 Gd7 C4 . 1_565 134.5(3)
Gd4 Gd7 C4 . 7_556 80.6(3)
Gd4 Gd7 C7 . 12_565 85.0(2)
Gd5 Gd7 Gd5 1_565 7_556 117.091(19)
Gd5 Gd7 Gd6 1_565 12_565 84.316(17)
Gd5 Gd7 Fe1 1_565 1_566 143.66(4)
Gd5 Gd7 Fe2 1_565 1_565 58.56(3)
Gd5 Gd7 Fe2 1_565 7_556 57.51(3)
Gd5 Gd7 C4 1_565 1_565 44.3(3)
Gd5 Gd7 C4 1_565 7_556 84.0(2)
Gd5 Gd7 C7 1_565 12_565 110.3(2)
Gd5 Gd7 Gd6 7_556 12_565 93.543(19)
Gd5 Gd7 Fe1 7_556 1_566 60.25(3)
Gd5 Gd7 Fe2 7_556 1_565 145.09(4)
Gd5 Gd7 Fe2 7_556 7_556 59.59(4)
Gd5 Gd7 C4 7_556 1_565 161.2(3)
Gd5 Gd7 C4 7_556 7_556 44.1(3)
Gd5 Gd7 C7 7_556 12_565 47.5(2)
Gd6 Gd7 Fe1 12_565 1_566 60.72(3)
Gd6 Gd7 Fe2 12_565 1_565 52.51(3)
Gd6 Gd7 Fe2 12_565 7_556 88.59(4)
Gd6 Gd7 C4 12_565 1_565 87.5(3)
Gd6 Gd7 C4 12_565 7_556 120.1(3)
Gd6 Gd7 C7 12_565 12_565 46.7(2)
Fe1 Gd7 Fe2 1_566 1_565 101.58(3)
Fe1 Gd7 Fe2 1_566 7_556 108.51(5)
Fe1 Gd7 C4 1_566 1_565 134.5(3)
Fe1 Gd7 C4 1_566 7_556 104.2(3)
Fe1 Gd7 C7 1_566 12_565 38.1(2)
Fe2 Gd7 Fe2 1_565 7_556 106.18(5)
Fe2 Gd7 C4 1_565 1_565 36.1(3)
Fe2 Gd7 C4 1_565 7_556 141.4(3)
Fe2 Gd7 C7 1_565 12_565 99.2(2)
Fe2 Gd7 C4 7_556 1_565 101.7(3)
Fe2 Gd7 C4 7_556 7_556 38.0(3)
Fe2 Gd7 C7 7_556 12_565 72.9(2)
C4 Gd7 C4 1_565 7_556 120.3(4)
C4 Gd7 C7 1_565 12_565 133.2(4)
C4 Gd7 C7 7_556 12_565 84.4(4)
Gd1 Fe1 Gd7 1_655 1_544 117.40(4)
Gd1 Fe1 Gd7 1_655 2_566 117.40(4)
Gd1 Fe1 C6 1_655 . 180.0(5)
Gd1 Fe1 C7 1_655 15_545 58.8(4)
Gd1 Fe1 C7 1_655 12_554 58.8(4)
Gd1 Fe1 O7 1_655 15_545 58.8(4)
Gd1 Fe1 O7 1_655 12_554 58.8(4)
Gd7 Fe1 Gd7 1_544 2_566 125.21(8)
Gd7 Fe1 C6 1_544 . 62.60(4)
Gd7 Fe1 C7 1_544 15_545 175.8(4)
Gd7 Fe1 C7 1_544 12_554 58.6(4)
Gd7 Fe1 O7 1_544 15_545 175.8(4)
Gd7 Fe1 O7 1_544 12_554 58.6(4)
Gd7 Fe1 C6 2_566 . 62.60(4)
Gd7 Fe1 C7 2_566 15_545 58.6(4)
Gd7 Fe1 C7 2_566 12_554 175.8(4)
Gd7 Fe1 O7 2_566 15_545 58.6(4)
Gd7 Fe1 O7 2_566 12_554 175.8(4)
C6 Fe1 C7 . 15_545 121.2(4)
C6 Fe1 C7 . 12_554 121.2(4)
C6 Fe1 O7 . 15_545 121.2(4)
C6 Fe1 O7 . 12_554 121.2(4)
C7 Fe1 C7 15_545 12_554 117.6(5)
C7 Fe1 O7 15_545 15_545 0.0(5)
C7 Fe1 O7 15_545 12_554 117.6(5)
C7 Fe1 O7 12_554 15_545 117.6(5)
C7 Fe1 O7 12_554 12_554 0.0(5)
O7 Fe1 O7 15_545 12_554 117.6(5)
Gd6 Fe2 Gd7 12_555 1_545 72.64(4)
Gd6 Fe2 Gd7 12_555 11_446 156.36(6)
Gd6 Fe2 Fe5 12_555 14_556 77.18(6)
Gd6 Fe2 C1 12_555 14_556 59.9(4)
Gd6 Fe2 C4 12_555 . 128.1(4)
Gd7 Fe2 Gd7 1_545 11_446 120.33(6)
Gd7 Fe2 Fe5 1_545 14_556 113.83(7)
Gd7 Fe2 C1 1_545 14_556 110.1(4)
Gd7 Fe2 C4 1_545 . 58.0(4)
Gd7 Fe2 Fe5 11_446 14_556 79.35(6)
Gd7 Fe2 C1 11_446 14_556 123.7(4)
Gd7 Fe2 C4 11_446 . 62.5(4)
Fe5 Fe2 C1 14_556 14_556 102.6(4)
Fe5 Fe2 C4 14_556 . 107.2(4)
C1 Fe2 C4 14_556 . 150.2(5)
Gd1 Fe3 Gd2 . 1_554 70.52(5)
Gd1 Fe3 Gd2 . 2_556 70.52(5)
Gd1 Fe3 Gd4 . 1_544 120.13(5)
Gd1 Fe3 Gd4 . 2_566 120.13(5)
Gd1 Fe3 C5 . . 60.2(4)
Gd1 Fe3 C5 . 2_555 60.2(4)
Gd1 Fe3 O5 . . 60.2(4)
Gd1 Fe3 O5 . 2_555 60.2(4)
Gd1 Fe3 C6 . . 180.0(5)
Gd2 Fe3 Gd2 1_554 2_556 141.04(10)
Gd2 Fe3 Gd4 1_554 1_544 130.65(2)
Gd2 Fe3 Gd4 1_554 2_566 71.539(16)
Gd2 Fe3 C5 1_554 . 52.5(3)
Gd2 Fe3 C5 1_554 2_555 106.1(3)
Gd2 Fe3 O5 1_554 . 52.5(3)
Gd2 Fe3 O5 1_554 2_555 106.1(3)
Gd2 Fe3 C6 1_554 . 109.48(5)
Gd2 Fe3 Gd4 2_556 1_544 71.539(16)
Gd2 Fe3 Gd4 2_556 2_566 130.65(2)
Gd2 Fe3 C5 2_556 . 106.1(3)
Gd2 Fe3 C5 2_556 2_555 52.5(3)
Gd2 Fe3 O5 2_556 . 106.1(3)
Gd2 Fe3 O5 2_556 2_555 52.5(3)
Gd2 Fe3 C6 2_556 . 109.48(5)
Gd4 Fe3 Gd4 1_544 2_566 119.73(10)
Gd4 Fe3 C5 1_544 . 176.9(3)
Gd4 Fe3 C5 1_544 2_555 60.1(4)
Gd4 Fe3 O5 1_544 . 176.9(3)
Gd4 Fe3 O5 1_544 2_555 60.1(4)
Gd4 Fe3 C6 1_544 . 59.87(5)
Gd4 Fe3 C5 2_566 . 60.1(4)
Gd4 Fe3 C5 2_566 2_555 176.9(3)
Gd4 Fe3 O5 2_566 . 60.1(4)
Gd4 Fe3 O5 2_566 2_555 176.9(3)
Gd4 Fe3 C6 2_566 . 59.87(5)
C5 Fe3 C5 . 2_555 120.3(5)
C5 Fe3 O5 . . 0.0(5)
C5 Fe3 O5 . 2_555 120.3(5)
C5 Fe3 C6 . . 119.8(4)
C5 Fe3 O5 2_555 . 120.3(5)
C5 Fe3 O5 2_555 2_555 0.0(5)
C5 Fe3 C6 2_555 . 119.8(4)
O5 Fe3 O5 . 2_555 120.3(5)
O5 Fe3 C6 . . 119.8(4)
O5 Fe3 C6 2_555 . 119.8(4)
Gd2 Fe4 Gd3 1_554 . 121.92(6)
Gd2 Fe4 Gd4 1_554 13_444 115.49(5)
Gd2 Fe4 C1 1_554 . 175.4(4)
Gd2 Fe4 C2 1_554 11_445 57.0(4)
Gd2 Fe4 C5 1_554 . 58.6(3)
Gd2 Fe4 O5 1_554 . 58.6(3)
Gd3 Fe4 Gd4 . 13_444 122.54(6)
Gd3 Fe4 C1 . . 62.7(4)
Gd3 Fe4 C2 . 11_445 178.8(4)
Gd3 Fe4 C5 . . 63.3(3)
Gd3 Fe4 O5 . . 63.3(3)
Gd4 Fe4 C1 13_444 . 59.9(4)
Gd4 Fe4 C2 13_444 11_445 58.6(4)
Gd4 Fe4 C5 13_444 . 173.7(3)
Gd4 Fe4 O5 13_444 . 173.7(3)
C1 Fe4 C2 . 11_445 118.5(5)
C1 Fe4 C5 . . 126.0(5)
C1 Fe4 O5 . . 126.0(5)
C2 Fe4 C5 11_445 . 115.6(5)
C2 Fe4 O5 11_445 . 115.6(5)
C5 Fe4 O5 . . 0.0(5)
Gd3 Fe5 Gd3 . 3_555 116.93(6)
Gd3 Fe5 Gd5 . 14_456 156.68(7)
Gd3 Fe5 Gd6 . . 70.89(4)
Gd3 Fe5 Fe2 . 14_456 81.22(6)
Gd3 Fe5 C3 . . 61.7(4)
Gd3 Fe5 C7 . . 124.6(3)
Gd3 Fe5 O7 . . 124.6(3)
Gd3 Fe5 Gd5 3_555 14_456 72.87(4)
Gd3 Fe5 Gd6 3_555 . 137.39(6)
Gd3 Fe5 Fe2 3_555 14_456 110.36(7)
Gd3 Fe5 C3 3_555 . 55.6(4)
Gd3 Fe5 C7 3_555 . 112.9(4)
Gd3 Fe5 O7 3_555 . 112.9(4)
Gd5 Fe5 Gd6 14_456 . 117.55(6)
Gd5 Fe5 Fe2 14_456 14_456 75.47(6)
Gd5 Fe5 C3 14_456 . 126.4(4)
Gd5 Fe5 C7 14_456 . 61.7(3)
Gd5 Fe5 O7 14_456 . 61.7(3)
Gd6 Fe5 Fe2 . 14_456 112.24(8)
Gd6 Fe5 C3 . . 110.6(4)
Gd6 Fe5 C7 . . 56.2(3)
Gd6 Fe5 O7 . . 56.2(3)
Fe2 Fe5 C3 14_456 . 107.3(4)
Fe2 Fe5 C7 14_456 . 103.1(4)
Fe2 Fe5 O7 14_456 . 103.1(4)
C3 Fe5 C7 . . 149.6(5)
C3 Fe5 O7 . . 149.6(5)
C7 Fe5 O7 . . 0.0(5)
Gd2 Fe6 Gd5 . . 115.28(6)
Gd2 Fe6 Gd6 . 2_556 117.15(6)
Gd2 Fe6 C2 . 1_545 177.8(4)
Gd2 Fe6 C3 . 12_455 57.9(4)
Gd2 Fe6 C4 . . 58.9(4)
Gd5 Fe6 Gd6 . 2_556 127.48(6)
Gd5 Fe6 C2 . 1_545 64.1(4)
Gd5 Fe6 C3 . 12_455 173.0(4)
Gd5 Fe6 C4 . . 56.4(4)
Gd6 Fe6 C2 2_556 1_545 63.4(4)
Gd6 Fe6 C3 2_556 12_455 59.3(4)
Gd6 Fe6 C4 2_556 . 175.4(4)
C2 Fe6 C3 1_545 12_455 122.7(5)
C2 Fe6 C4 1_545 . 120.5(5)
C3 Fe6 C4 12_455 . 116.7(5)
Gd3 C1 Gd4 . 13_444 159.3(5)
Gd3 C1 Gd5 . 4_454 87.9(4)
Gd3 C1 Gd6 . 3_555 86.8(4)
Gd3 C1 Fe2 . 14_456 100.1(4)
Gd3 C1 Fe4 . . 79.3(4)
Gd4 C1 Gd5 13_444 4_454 96.2(4)
Gd4 C1 Gd6 13_444 3_555 91.3(4)
Gd4 C1 Fe2 13_444 14_456 100.1(5)
Gd4 C1 Fe4 13_444 . 80.2(4)
Gd5 C1 Gd6 4_454 3_555 171.0(4)
Gd5 C1 Fe2 4_454 14_456 90.6(5)
Gd5 C1 Fe4 4_454 . 93.7(5)
Gd6 C1 Fe2 3_555 14_456 83.2(5)
Gd6 C1 Fe4 3_555 . 92.5(5)
Fe2 C1 Fe4 14_456 . 175.7(9)
Gd2 C2 Gd4 7_556 11_456 165.8(5)
Gd2 C2 Fe4 7_556 7_555 84.5(5)
Gd2 C2 Fe6 7_556 1_565 97.0(5)
Gd4 C2 Fe4 11_456 7_555 81.5(4)
Gd4 C2 Fe6 11_456 1_565 96.9(5)
Fe4 C2 Fe6 7_555 1_565 178.4(7)
Gd2 C3 Gd3 4_554 . 92.0(4)
Gd2 C3 Gd3 4_554 3_555 96.7(4)
Gd2 C3 Gd6 4_554 3_555 164.6(5)
Gd2 C3 Fe5 4_554 . 97.2(5)
Gd2 C3 Fe6 4_554 4_554 82.2(4)
Gd3 C3 Gd3 . 3_555 165.6(5)
Gd3 C3 Gd6 . 3_555 88.1(4)
Gd3 C3 Fe5 . . 79.6(4)
Gd3 C3 Fe6 . 4_554 97.9(5)
Gd3 C3 Gd6 3_555 3_555 86.4(4)
Gd3 C3 Fe5 3_555 . 88.0(4)
Gd3 C3 Fe6 3_555 4_554 94.6(5)
Gd6 C3 Fe5 3_555 . 97.9(5)
Gd6 C3 Fe6 3_555 4_554 82.6(4)
Fe5 C3 Fe6 . 4_554 177.3(7)
Gd2 C4 Gd5 . . 167.6(5)
Gd2 C4 Gd7 . 1_545 93.4(4)
Gd2 C4 Gd7 . 11_446 92.3(4)
Gd2 C4 Fe2 . . 94.6(5)
Gd2 C4 Fe6 . . 81.6(4)
Gd5 C4 Gd7 . 1_545 88.5(4)
Gd5 C4 Gd7 . 11_446 88.9(4)
Gd5 C4 Fe2 . . 97.7(5)
Gd5 C4 Fe6 . . 86.1(4)
Gd7 C4 Gd7 1_545 11_446 164.7(5)
Gd7 C4 Fe2 1_545 . 85.8(4)
Gd7 C4 Fe6 1_545 . 96.1(5)
Gd7 C4 Fe2 11_446 . 79.6(4)
Gd7 C4 Fe6 11_446 . 98.8(5)
Fe2 C4 Fe6 . . 175.8(8)
Gd1 C5 Gd2 . 1_554 88.0(3)
Gd1 C5 Gd3 . . 94.4(3)
Gd1 C5 Gd4 . 2_566 161.7(5)
Gd1 C5 Fe3 . . 81.0(4)
Gd1 C5 Fe4 . . 97.6(5)
Gd1 C5 O5 . . 0
Gd2 C5 Gd3 1_554 . 163.1(5)
Gd2 C5 Gd4 1_554 2_566 89.4(3)
Gd2 C5 Fe3 1_554 . 93.0(4)
Gd2 C5 Fe4 1_554 . 83.6(4)
Gd2 C5 O5 1_554 . 0
Gd3 C5 Gd4 . 2_566 93.3(3)
Gd3 C5 Fe3 . . 103.9(4)
Gd3 C5 Fe4 . . 79.5(4)
Gd3 C5 O5 . . 0
Gd4 C5 Fe3 2_566 . 81.0(4)
Gd4 C5 Fe4 2_566 . 100.1(5)
Gd4 C5 O5 2_566 . 0
Fe3 C5 Fe4 . . 176.4(6)
Fe3 C5 O5 . . 0
Fe4 C5 O5 . . 0
Fe3 O5 Fe4 . . 176.4(6)
Fe3 O5 C5 . . 0
Fe4 O5 C5 . . 0
Gd4 C6 Gd4 1_544 2_566 162.9(8)
Gd4 C6 Fe1 1_544 . 98.5(4)
Gd4 C6 Fe3 1_544 . 81.5(4)
Gd4 C6 Fe1 2_566 . 98.5(4)
Gd4 C6 Fe3 2_566 . 81.5(4)
Fe1 C6 Fe3 . . 180.0(5)
Gd1 C7 Gd6 3_555 . 95.7(4)
Gd1 C7 Gd7 3_555 4_464 163.2(5)
Gd1 C7 Fe1 3_555 3_455 80.0(3)
Gd1 C7 Fe5 3_555 . 96.7(5)
Gd1 C7 O7 3_555 . 0
Gd6 C7 Gd7 . 4_464 88.1(3)
Gd6 C7 Fe1 . 3_455 96.3(4)
Gd6 C7 Fe5 . . 88.7(4)
Gd6 C7 O7 . . 0
Gd7 C7 Fe1 4_464 3_455 83.3(4)
Gd7 C7 Fe5 4_464 . 99.8(4)
Gd7 C7 O7 4_464 . 0
Fe1 C7 Fe5 3_455 . 174.3(7)
Fe1 C7 O7 3_455 . 0
Fe5 C7 O7 . . 0
Fe1 O7 Fe5 3_455 . 174.3(7)
Fe1 O7 C7 3_455 . 0
Fe5 O7 C7 . . 0
loop_
_geom_bond_atom_site_label_1
_geom_bond_atom_site_label_2
_geom_bond_site_symmetry_2
_geom_bond_distance
Gd1 Gd2 1_554 3.4779(7)
Gd1 Gd2 2_556 3.4779(7)
Gd1 Gd5 7_445 3.6888(7)
Gd1 Gd5 4_454 3.6888(7)
Gd1 Fe1 1_455 2.806(3)
Gd1 Fe3 . 2.834(3)
Gd1 C5 . 2.489(12)
Gd1 C5 2_555 2.489(12)
Gd1 C7 15_445 2.438(11)
Gd1 C7 12_454 2.438(11)
Gd2 Gd3 12_455 3.6715(8)
Gd2 Gd4 2_567 3.5181(8)
Gd2 Gd5 11_456 3.7338(9)
Gd2 Gd7 1_545 3.7572(9)
Gd2 Gd7 11_446 3.7263(8)
Gd2 Fe3 1_556 3.1714(11)
Gd2 Fe4 1_556 2.9325(16)
Gd2 Fe6 . 2.8846(17)
Gd2 C2 11_446 2.469(12)
Gd2 C3 12_455 2.465(12)
Gd2 C4 . 2.497(12)
Gd2 C5 1_556 2.519(10)
Gd3 Gd4 2_566 3.7484(8)
Gd3 Gd5 4_454 3.6686(9)
Gd3 Gd6 . 3.5690(8)
Gd3 Gd6 3_555 3.6433(9)
Gd3 Fe4 . 2.9367(16)
Gd3 Fe5 . 2.9422(18)
Gd3 Fe5 15_445 3.1555(18)
Gd3 C1 . 2.655(12)
Gd3 C3 . 2.634(12)
Gd3 C3 15_445 2.605(12)
Gd3 C5 . 2.669(10)
Gd4 Gd5 7_556 3.6841(9)
Gd4 Gd6 15_556 3.6709(9)
Gd4 Gd6 8_555 3.7114(9)
Gd4 Gd7 . 3.6622(8)
Gd4 Fe3 1_566 2.8284(15)
Gd4 Fe4 13_556 2.8251(19)
Gd4 C1 13_556 2.482(12)
Gd4 C2 7_546 2.438(12)
Gd4 C5 2_566 2.482(12)
Gd4 C6 1_566 2.474(3)
Gd5 Gd7 1_545 3.6306(8)
Gd5 Gd7 11_446 3.6463(9)
Gd5 Fe5 14_556 3.0187(18)
Gd5 Fe6 . 3.0385(19)
Gd5 C1 12_555 2.632(13)
Gd5 C4 . 2.536(12)
Gd6 Gd7 4_464 3.6551(9)
Gd6 Fe2 4_454 3.0383(18)
Gd6 Fe5 . 3.2014(18)
Gd6 Fe6 2_556 3.0050(19)
Gd6 C1 15_445 2.647(14)
Gd6 C3 15_445 2.606(12)
Gd6 C7 . 2.660(11)
Gd7 Fe1 1_566 3.0202(13)
Gd7 Fe2 1_565 3.1312(18)
Gd7 Fe2 7_556 2.9584(18)
Gd7 C4 1_565 2.664(12)
Gd7 C4 7_556 2.667(12)
Gd7 C7 12_565 2.596(12)
Fe1 C6 . 1.803(18)
Fe1 C7 15_545 1.876(10)
Fe1 C7 12_554 1.876(10)
Fe1 O7 15_545 1.876(10)
Fe1 O7 12_554 1.876(10)
Fe2 Fe5 14_556 2.366(2)
Fe2 C1 14_556 1.836(11)
Fe2 C4 . 1.852(12)
Fe3 C5 . 1.799(12)
Fe3 C5 2_555 1.799(12)
Fe3 O5 . 1.799(12)
Fe3 O5 2_555 1.799(12)
Fe3 C6 . 1.787(18)
Fe4 C1 . 1.840(11)
Fe4 C2 11_445 1.834(11)
Fe4 C5 . 1.807(12)
Fe4 O5 . 1.807(12)
Fe5 C3 . 1.872(12)
Fe5 C7 . 1.843(11)
Fe5 O7 . 1.843(11)
Fe6 C2 1_545 1.825(11)
Fe6 C3 12_455 1.870(12)
Fe6 C4 . 1.856(12)
C5 O5 . 0
C7 O7 . 0
loop_
_refln_index_h
_refln_index_k
_refln_index_l
_refln_F_squared_calc
_refln_F_squared_meas
_refln_F_squared_sigma
_refln_observed_status
4 0 0 3346600. 3446610. 74337. o
-8 0 0 4363610. 4683690. 84851. o
2 2 0 717928. 746918. 12095. o
-2 2 0 715823. 711228. 13581. o
6 2 0 2200040. 2232680. 55436. o
-6 2 0 2136060. 2226260. 34751. o
-10 2 0 102595. 116754. 11187. o
0 4 0 647465. 677494. 22734. o
-4 4 0 3756170. 3796100. 48567. o
-8 4 0 2194180. 2271580. 37129. o
2 6 0 2303310. 2403120. 34203. o
-2 6 0 2332360. 2404180. 59206. o
-6 6 0 2248650. 2222460. 30307. o
-10 6 0 308707. 336009. 17305. o
0 8 0 4440880. 4696650. 110527. o
4 8 0 2263620. 2435870. 37661. o
-8 8 0 1065370. 998748. 37035. o
2 10 0 2448080. 2465090. 47096. o
-2 10 0 2477670. 2604780. 74258. o
6 10 0 3045900. 3354820. 57751. o
-10 10 0 301392. 296408. 24002. o
0 12 0 2365730. 2453090. 74071. o
4 12 0 4178910. 4346700. 74493. o
-4 12 0 4162970. 4202590. 114611. o
-8 12 0 580053. 506071. 32435. o
2 14 0 3056510. 3047270. 60208. o
-2 14 0 3109890. 3108270. 92721. o
6 14 0 48150. 51696. 8527. o
-6 14 0 47820. 64745. 13065. o
0 16 0 738387. 751737. 40305. o
4 16 0 115748. 115456. 9247. o
-4 16 0 122728. 139332. 17587. o
2 18 0 421975. 427369. 19808. o
-2 18 0 392926. 375704. 29525. o
0 20 0 275087. 334804. 28680. o
4 20 0 98276. 90593. 13847. o
3 1 1 2160030. 2208980. 50366. o
-3 1 1 2157210. 2177740. 28852. o
5 1 1 665980. 680890. 13096. o
7 1 1 72964. 71035. 5304. o
-7 1 1 67043. 66060. 4819. o
9 1 1 184866. 205627. 12548. o
-9 1 1 184489. 187430. 7714. o
-11 1 1 794016. 859401. 23032. o
1 3 1 1318. 5179. 1518. o
3 3 1 7353930. 7249950. 84429. o
-3 3 1 7359290. 7037870. 64245. o
-5 3 1 1498570. 1463480. 16147. o
7 3 1 1617590. 1636050. 31496. o
-7 3 1 1574900. 1520500. 19464. o
9 3 1 299659. 296298. 15568. o
-9 3 1 293311. 297080. 11140. o
-11 3 1 80227. 95334. 7526. o
1 5 1 2202190. 2201180. 38303. o
-1 5 1 2201480. 2238060. 39414. o
3 5 1 117757. 115737. 3693. o
-3 5 1 106522. 107100. 4506. o
-5 5 1 752213. 710900. 10248. o
-7 5 1 1522830. 1500490. 16225. o
9 5 1 573334. 609103. 26724. o
-9 5 1 563394. 569064. 23939. o
-11 5 1 264527. 294906. 18228. o
1 7 1 81178. 85852. 6384. o
-1 7 1 71839. 80329. 9998. o
3 7 1 675203. 677635. 10608. o
-3 7 1 640948. 628192. 24534. o
5 7 1 455713. 461525. 9544. o
-5 7 1 443364. 428308. 13284. o
-7 7 1 35382. 36801. 2707. o
-9 7 1 386628. 398611. 18729. o
1 9 1 1821280. 1818990. 38897. o
-1 9 1 1812270. 1907030. 40837. o
3 9 1 2647870. 2645830. 28445. o
-3 9 1 2652090. 2626740. 74524. o
5 9 1 1027450. 1049150. 17524. o
-5 9 1 1061090. 1081720. 42950. o
-7 9 1 178384. 158781. 9044. o
-9 9 1 1166030. 1201200. 34923. o
1 11 1 497604. 540306. 19605. o
-1 11 1 482203. 480223. 19386. o
3 11 1 12619. 14833. 2722. o
-3 11 1 15225. 12470. 5054. <
5 11 1 245113. 248248. 8105. o
-5 11 1 262421. 281152. 15787. o
-7 11 1 481382. 457129. 20888. o
-9 11 1 241518. 225764. 15177. o
1 13 1 1784980. 1757210. 42731. o
-1 13 1 1749300. 1782420. 44014. o
3 13 1 202141. 194737. 9122. o
-3 13 1 217173. 230098. 14739. o
5 13 1 103702. 118303. 6024. o
-5 13 1 102172. 98135. 10092. o
7 13 1 226139. 264645. 18964. o
-7 13 1 221811. 219458. 15255. o
-9 13 1 919746. 970475. 33812. o
1 15 1 155469. 161378. 12408. o
-1 15 1 153044. 141726. 12064. o
3 15 1 389022. 376299. 11938. o
-3 15 1 392078. 429372. 21138. o
5 15 1 718482. 720209. 16429. o
-5 15 1 721985. 661832. 27632. o
-7 15 1 199681. 183002. 14645. o
1 17 1 319110. 306062. 17915. o
-1 17 1 332847. 325135. 26458. o
3 17 1 236884. 228533. 9826. o
-3 17 1 235480. 223542. 15975. o
5 17 1 895088. 889614. 29228. o
-5 17 1 912100. 907905. 33875. o
1 19 1 173880. 171298. 10984. o
-1 19 1 169645. 187070. 15177. o
3 19 1 196578. 214076. 15193. o
-3 19 1 191868. 192968. 15959. o
5 19 1 77435. 86650. 12736. o
1 21 1 206729. 169514. 17994. o
3 21 1 309580. 321943. 19370. o
2 0 2 581. 7651. 3301. <
6 0 2 1925430. 1828580. 32842. o
-6 0 2 1918720. 1892850. 55858. o
-10 0 2 931340. 970632. 33593. o
2 2 2 19014. 22985. 2331. o
-2 2 2 18494. 20622. 1878. o
-4 2 2 225769. 211165. 4365. o
6 2 2 43642. 41823. 3927. o
-6 2 2 44385. 46533. 2973. o
8 2 2 65922. 62383. 6384. o
-8 2 2 55590. 57673. 3552. o
-10 2 2 31054. 41229. 5961. o
-12 2 2 67527. 68939. 13002. o
0 4 2 415. 939. 4772. <
2 4 2 1832700. 1836040. 18400. o
-2 4 2 1841930. 1801150. 26427. o
4 4 2 38768. 37395. 4240. o
-4 4 2 41249. 42058. 2394. o
-6 4 2 590703. 565058. 8324. o
8 4 2 41361. 38178. 5648. o
-8 4 2 43455. 50022. 3802. o
-10 4 2 281607. 287207. 12955. o
-12 4 2 10. -454. 5289. <
0 6 2 9285610. 9357450. 194392. o
2 6 2 31646. 32310. 2331. o
-2 6 2 33788. 32200. 4350. o
4 6 2 1875720. 1820000. 20528. o
-4 6 2 1861610. 1782980. 33734. o
-6 6 2 89709. 87136. 3818. o
-8 6 2 369308. 346789. 7260. o
-10 6 2 47969. 49897. 5946. o
0 8 2 4061. 3004. 4365. <
2 8 2 475549. 477735. 10984. o
-2 8 2 471135. 512768. 17258. o
4 8 2 79083. 78436. 3724. o
-4 8 2 79651. 86478. 7573. o
6 8 2 1415520. 1389930. 42590. o
-6 8 2 1413670. 1366410. 22562. o
-8 8 2 108858. 110245. 9028. o
-10 8 2 63339. 58737. 10436. o
0 10 2 245001. 253176. 13315. o
2 10 2 35202. 28320. 3239. o
-2 10 2 40038. 28555. 8746. o
4 10 2 3056. 6744. 2206. o
-4 10 2 2645. -548. 7526. <
6 10 2 70781. 75604. 5257. o
-6 10 2 68752. 61006. 11923. o
-8 10 2 205627. 207723. 19949. o
-10 10 2 22341. 30589. 6931. o
0 12 2 332076. 325432. 15881. o
2 12 2 1003380. 926196. 21858. o
-2 12 2 1035140. 975873. 30010. o
4 12 2 97957. 99903. 5461. o
-4 12 2 95665. 98307. 9904. o
6 12 2 748420. 753286. 15130. o
-6 12 2 742955. 709851. 26990. o
-8 12 2 543. 3286. 4678. <
-10 12 2 64581. 61115. 8731. o
0 14 2 148240. 137611. 11344. o
2 14 2 144385. 146983. 8762. o
-2 14 2 143157. 155088. 12376. o
4 14 2 199186. 185990. 7855. o
-4 14 2 199972. 188384. 14098. o
6 14 2 7674. 8496. 2879. <
-6 14 2 6545. 9341. 5335. <
-8 14 2 94135. 83521. 10452. o
0 16 2 81659. 93457. 10483. o
2 16 2 663226. 646624. 16742. o
-2 16 2 665980. 696614. 27475. o
4 16 2 13528. 12627. 2816. o
-4 16 2 14907. 18087. 5867. o
6 16 2 755825. 752284. 36362. o
-6 16 2 757299. 719020. 29760. o
0 18 2 1626190. 1647310. 46767. o
2 18 2 43687. 43904. 4850. o
-2 18 2 38183. 38162. 7526. o
4 18 2 334584. 319737. 17743. o
-4 18 2 345480. 296861. 19230. o
0 20 2 30829. 40243. 8465. o
2 20 2 699236. 674162. 22500. o
4 20 2 42480. 59989. 8762. o
0 22 2 73441. 84194. 13331. o
-1 1 3 601. 282. 1596. <
3 1 3 337307. 334961. 10702. o
-3 1 3 333761. 345741. 10968. o
5 1 3 156821. 152288. 5820. o
-5 1 3 155158. 176289. 12924. o
7 1 3 16439. 21999. 2942. o
-7 1 3 16651. 23642. 3176. o
-9 1 3 137097. 128880. 5304. o
-11 1 3 82377. 91282. 7291. o
1 3 3 24771. 25285. 3145. o
-1 3 3 24891. 31716. 3786. o
3 3 3 2027170. 2069600. 37661. o
-3 3 3 2023560. 2023830. 22453. o
-5 3 3 197842. 207395. 5273. o
7 3 3 152045. 160987. 9763. o
-7 3 3 148308. 150660. 6071. o
9 3 3 187364. 189464. 9091. o
-9 3 3 195559. 211181. 9028. o
-11 3 3 60908. 77450. 7823. o
1 5 3 417133. 407435. 9748. o
-1 5 3 423740. 412067. 13002. o
3 5 3 295311. 295484. 6071. o
-3 5 3 287166. 280135. 8699. o
5 5 3 102836. 105285. 9560. o
-5 5 3 109891. 106381. 4350. o
-7 5 3 88090. 86619. 3583. o
9 5 3 229491. 208083. 15928. o
-9 5 3 232200. 237170. 11625. o
-11 5 3 36377. 45344. 6227. o
1 7 3 259821. 262455. 11250. o
-1 7 3 264846. 257041. 11438. o
3 7 3 231509. 259310. 6509. o
-3 7 3 236919. 284579. 12392. o
5 7 3 199912. 202998. 7229. o
-5 7 3 203170. 200948. 6744. o
-7 7 3 171569. 165728. 5148. o
9 7 3 111007. 96946. 11563. o
-9 7 3 107894. 112780. 10092. o
1 9 3 288647. 291901. 13143. o
-1 9 3 293267. 314151. 20497. o
3 9 3 777404. 787051. 12580. o
-3 9 3 770320. 791526. 34548. o
5 9 3 20644. 27303. 2722. o
-5 9 3 22016. 52432. 10827. o
-7 9 3 274810. 251502. 9200. o
-9 9 3 274078. 285001. 21874. o
1 11 3 192419. 191842. 11657. o
-1 11 3 187708. 183549. 12110. o
3 11 3 99668. 98589. 5257. o
-3 11 3 101842. 69768. 11391. o
5 11 3 1427. 5116. 2503. <
-5 11 3 1529. 2065. 6822. <
7 11 3 60062. 73101. 9091. o
-7 11 3 58625. 68344. 12408. o
-9 11 3 24927. 25285. 6509. o
1 13 3 78122. 82817. 8856. o
-1 13 3 84998. 69455. 8653. o
3 13 3 11639. 8058. 2613. o
-3 13 3 9172. 7636. 5914. <
5 13 3 65699. 67984. 4569. o
-5 13 3 64452. 67984. 9450. o
7 13 3 8383. 10405. 5398. <
-7 13 3 9601. 10483. 5601. <
-9 13 3 90342. 89968. 10217. o
1 15 3 224479. 243475. 15255. o
-1 15 3 219734. 214639. 14755. o
3 15 3 486037. 488469. 13769. o
-3 15 3 479247. 486544. 22687. o
5 15 3 65584. 66795. 5820. o
-5 15 3 71522. 77967. 10061. o
-7 15 3 344247. 347447. 19949. o
1 17 3 25415. 22703. 4913. o
-1 17 3 21749. 28852. 7291. o
3 17 3 80679. 80548. 5977. o
-3 17 3 84464. 84882. 10311. o
5 17 3 136959. 152115. 11500. o
-5 17 3 126959. 138049. 12877. o
1 19 3 6712. 9607. 3802. <
-1 19 3 6483. 13300. 6290. <
3 19 3 7507. 4052. 3067. <
-3 19 3 10100. 7495. 5508. <
5 19 3 156061. 189745. 19574. o
1 21 3 154801. 142242. 16742. o
3 21 3 119760. 103455. 15850. o
4 0 4 86118. 104253. 9028. o
-4 0 4 81746. 92580. 4475. o
-8 0 4 1198890. 1276760. 29634. o
-12 0 4 178263. 201245. 21436. o
0 2 4 2965. 1158. 2676. <
2 2 4 57503. 55952. 5914. o
-2 2 4 57236. 64260. 3254. o
4 2 4 125770. 143713. 10921. o
-4 2 4 124290. 123967. 3849. o
6 2 4 1071870. 1070130. 22828. o
-6 2 4 1054450. 1076150. 16241. o
8 2 4 7683. 12502. 2738. o
-8 2 4 7941. 8293. 1893. o
10 2 4 343672. 350654. 19777. o
-10 2 4 340690. 387783. 16366. o
-12 2 4 79613. 74446. 14191. o
0 4 4 1032. -219. 4256. <
2 4 4 10313. 16319. 2159. o
-2 4 4 9843. 11328. 2003. o
4 4 4 186286. 198492. 9951. o
-4 4 4 190539. 205376. 5617. o
-6 4 4 63613. 58440. 2910. o
8 4 4 1746. 3489. 2269. <
-8 4 4 2397. 8621. 1971. o
10 4 4 51481. 52651. 8543. o
-10 4 4 50984. 50570. 6118. o
-12 4 4 254621. 268447. 25066. o
0 6 4 246. 8136. 4960. <
2 6 4 63966. 71051. 3818. o
-2 6 4 74887. 85227. 6603. o
4 6 4 17768. 20826. 2519. o
-4 6 4 17746. 22437. 2832. o
-6 6 4 1221980. 1175760. 14958. o
-8 6 4 10944. 11172. 1768. o
10 6 4 203821. 218410. 17242. o
-10 6 4 201701. 231209. 14223. o
-12 6 4 31357. 37771. 10202. o
0 8 4 244829. 263034. 17289. o
2 8 4 60317. 71129. 4475. o
-2 8 4 59906. 55796. 9497. o
4 8 4 765970. 802338. 12548. o
-4 8 4 770099. 785690. 33828. o
6 8 4 33185. 35298. 6650. o
-6 8 4 32716. 33405. 4506. o
-8 8 4 519011. 505758. 14129. o
10 8 4 13579. 16538. 6024. <
-10 8 4 13825. 10546. 4647. <
0 10 4 99652. 92393. 8261. o
2 10 4 844740. 882479. 17305. o
-2 10 4 857623. 891304. 26098. o
4 10 4 51844. 49912. 3740. o
-4 10 4 54205. 48473. 6196. o
6 10 4 13773. 16507. 3129. o
-6 10 4 16431. 20747. 5054. o
-8 10 4 165145. 146092. 16601. o
-10 10 4 322226. 308596. 23517. o
0 12 4 992962. 1007870. 30041. o
2 12 4 35586. 33577. 3849. o
-2 12 4 34768. 32701. 9138. o
4 12 4 852454. 879585. 17321. o
-4 12 4 804248. 824618. 40321. o
6 12 4 101255. 106349. 6618. o
-6 12 4 101878. 94114. 14019. o
-8 12 4 95754. 102031. 14176. o
-10 12 4 82384. 83740. 10405. o
0 14 4 16229. 18948. 5570. o
2 14 4 17177. 14708. 3474. o
-2 14 4 20413. 20168. 5351. o
4 14 4 25222. 23235. 3239. o
-4 14 4 28250. 43888. 8465. o
6 14 4 455053. 476562. 15068. o
-6 14 4 449703. 436913. 21764. o
-8 14 4 19263. 21530. 6744. o
0 16 4 419790. 409579. 20528. o
2 16 4 60628. 60849. 6587. o
-2 16 4 63170. 43842. 7995. o
4 16 4 360866. 358321. 11750. o
-4 16 4 364580. 358556. 20215. o
6 16 4 3727. -1283. 4412. <
-6 16 4 3335. 2018. 5930. <
0 18 4 30107. 33624. 7604. o
2 18 4 119071. 116754. 7338. o
-2 18 4 126604. 126580. 12439. o
4 18 4 147921. 128677. 8793. o
-4 18 4 150470. 140787. 13456. o
0 20 4 408427. 433753. 23047. o
2 20 4 93841. 101468. 9012. o
4 20 4 319956. 319705. 18604. o
0 22 4 12379. 7197. 5930. <
1 1 5 236. 5586. 1752. o
-1 1 5 871. 4099. 1283. o
3 1 5 3029440. 2946240. 41072. o
-3 1 5 3021740. 3049070. 35080. o
5 1 5 1370840. 1386470. 29525. o
-5 1 5 1380860. 1423580. 24143. o
-7 1 5 745894. 779024. 14802. o
9 1 5 494748. 516335. 25128. o
-9 1 5 506793. 530214. 12846. o
-11 1 5 148068. 140474. 9122. o
1 3 5 1197070. 1205130. 33750. o
-1 3 5 1197200. 1172830. 18604. o
3 3 5 139787. 135624. 7542. o
-3 3 5 141324. 140568. 5210. o
-5 3 5 1101710. 1097650. 13206. o
7 3 5 173648. 174787. 9544. o
-7 3 5 172951. 166745. 5695. o
9 3 5 612929. 599934. 28586. o
-9 3 5 610812. 645466. 16664. o
-11 3 5 201902. 223730. 12877. o
1 5 5 3381140. 3335560. 44906. o
-1 5 5 3381170. 3465310. 81033. o
3 5 5 581517. 569893. 11453. o
-3 5 5 585001. 581565. 11938. o
5 5 5 584225. 615753. 19887. o
-5 5 5 579850. 567186. 10155. o
-7 5 5 471480. 479190. 8418. o
9 5 5 209533. 211259. 10280. o
-9 5 5 200420. 212667. 10937. o
-11 5 5 60059. 57783. 8355. o
1 7 5 838380. 828796. 17211. o
-1 7 5 829425. 827873. 22750. o
3 7 5 984566. 985324. 13628. o
-3 7 5 976011. 973558. 25066. o
5 7 5 1062090. 1056500. 20513. o
-5 7 5 1031990. 1013580. 17211. o
-7 7 5 220097. 203718. 7401. o
9 7 5 56061. 41964. 7933. o
-9 7 5 52435. 59206. 7776. o
1 9 5 1014690. 1018780. 38991. o
-1 9 5 1018160. 1063450. 28304. o
3 9 5 1908410. 1945320. 24737. o
-3 9 5 1893970. 1913600. 60474. o
5 9 5 90658. 95866. 6040. o
-5 9 5 93031. 102031. 12987. o
-7 9 5 353820. 343582. 10295. o
-9 9 5 263571. 241394. 19605. o
1 11 5 821971. 842408. 25754. o
-1 11 5 794364. 799803. 36879. o
3 11 5 466587. 463497. 10812. o
-3 11 5 451149. 476077. 19402. o
5 11 5 191766. 191639. 7088. o
-5 11 5 194243. 194079. 15803. o
7 11 5 43153. 52791. 8371. o
-7 11 5 47018. 58127. 11484. o
-9 11 5 45467. 38616. 9231. o
1 13 5 751208. 774033. 26020. o
-1 13 5 705824. 696880. 25738. o
3 13 5 143389. 141538. 6853. o
-3 13 5 147043. 141554. 16507. o
5 13 5 688564. 697287. 15224. o
-5 13 5 687414. 692781. 37646. o
7 13 5 1232010. 1220620. 44812. o
-7 13 5 1236540. 1207470. 52353. o
-9 13 5 35738. 33969. 7197. o
1 15 5 366185. 374484. 14974. o
-1 15 5 358580. 356725. 19276. o
3 15 5 699124. 694424. 16804. o
-3 15 5 695108. 711353. 28086. o
5 15 5 250081. 265443. 11688. o
-5 15 5 250414. 256165. 16961. o
-7 15 5 12177. 21217. 7307. <
1 17 5 302411. 300069. 14098. o
-1 17 5 316513. 342346. 19104. o
3 17 5 1061240. 1065840. 22625. o
-3 17 5 1050640. 1004850. 35658. o
5 17 5 145302. 125407. 10640. o
-5 17 5 148436. 145638. 13644. o
1 19 5 30167. 28367. 5210. o
-1 19 5 26704. 29447. 7448. o
3 19 5 90951. 86494. 7776. o
-3 19 5 91989. 89968. 11219. o
5 19 5 72743. 74133. 13018. o
1 21 5 148169. 121620. 15725. o
3 21 5 144007. 143901. 17915. o
2 0 6 3379730. 3161080. 38522. o
-2 0 6 3376220. 3232480. 35392. o
-6 0 6 3505050. 3464910. 48489. o
-10 0 6 512682. 541072. 24268. o
0 2 6 263. 5820. 1987. <
2 2 6 376621. 362311. 10640. o
-2 2 6 376838. 369774. 8308. o
4 2 6 771686. 737201. 16147. o
-4 2 6 783778. 733650. 12298. o
6 2 6 56366. 46767. 3849. o
-6 2 6 56650. 52791. 3630. o
8 2 6 228532. 188478. 15240. o
-8 2 6 225385. 225764. 7682. o
10 2 6 66397. 69862. 9654. o
-10 2 6 69987. 70143. 6869. o
-12 2 6 172832. 202779. 21420. o
0 4 6 32952. 43732. 4037. o
2 4 6 8920520. 8579860. 103533. o
-2 4 6 8942970. 8570600. 89044. o
4 4 6 23630. 28508. 4334. o
-4 4 6 22151. 21780. 2644. o
-6 4 6 2086840. 1946190. 19652. o
8 4 6 53837. 67609. 6102. o
-8 4 6 50946. 59253. 4240. o
10 4 6 2731350. 2649410. 77951. o
-10 4 6 2763640. 2818530. 64323. o
-12 4 6 22625. 24111. 7964. o
0 6 6 27687. 24549. 6212. o
2 6 6 200364. 199696. 7776. o
-2 6 6 204033. 198132. 9889. o
4 6 6 3878620. 3751580. 44999. o
-4 6 6 3877130. 3724150. 41213. o
6 6 6 52397. 67546. 9247. o
-6 6 6 56600. 50648. 3223. o
8 6 6 1690870. 1597240. 53746. o
-8 6 6 1712050. 1601690. 23673. o
10 6 6 32203. 21107. 6399. o
-10 6 6 31856. 40697. 10514. o
-12 6 6 306014. 331612. 27773. o
0 8 6 108196. 112311. 11907. o
2 8 6 2563840. 2491130. 33374. o
-2 8 6 2585110. 2469630. 70644. o
4 8 6 3217. 4037. 1815. <
-4 8 6 2282. -2597. 5852. <
6 8 6 2233000. 2160860. 61976. o
-6 8 6 2110400. 1976310. 31825. o
-8 8 6 53759. 61444. 7698. o
10 8 6 116700. 118366. 13691. o
-10 8 6 122900. 124734. 11125. o
0 10 6 1071910. 1045590. 41808. o
2 10 6 51329. 51508. 4240. o
-2 10 6 55659. 63400. 7401. o
4 10 6 1074530. 1084300. 18588. o
-4 10 6 1055540. 1022110. 29134. o
6 10 6 176674. 176493. 8387. o
-6 10 6 180051. 176383. 11563. o
-8 10 6 355062. 305264. 23063. o
10 10 6 19891. 17931. 5648. o
-10 10 6 18941. 27569. 8183. o
0 12 6 14210. 15991. 5758. <
2 12 6 492560. 475701. 13143. o
-2 12 6 487552. 478470. 29024. o
4 12 6 10952. 7385. 2331. o
6 12 6 1065700. 1063560. 23423. o
-6 12 6 1073790. 1046110. 46767. o
-8 12 6 100042. 74728. 12298. o
-10 12 6 438226. 471038. 30996. o
0 14 6 688920. 656450. 25160. o
2 14 6 62385. 66951. 6478. o
-2 14 6 63147. 61804. 9091. o
4 14 6 914597. 882949. 18494. o
-4 14 6 899457. 900238. 44264. o
6 14 6 27241. 26724. 3599. o
-6 14 6 27600. 30652. 10593. <
-8 14 6 362381. 353987. 27694. o
0 16 6 78917. 86447. 9873. o
2 16 6 346123. 342455. 14504. o
-2 16 6 362662. 347540. 19621. o
4 16 6 14550. 14567. 3708. o
-4 16 6 12656. 14802. 6071. <
6 16 6 398477. 425757. 27757. o
-6 16 6 388879. 388675. 21717. o
0 18 6 1597040. 1534130. 45015. o
2 18 6 65766. 68015. 7213. o
-2 18 6 64820. 72162. 10155. o
4 18 6 69823. 73273. 7010. o
-4 18 6 61153. 61804. 9873. o
0 20 6 28331. 27554. 5101. o
2 20 6 115365. 116316. 9419. o
4 20 6 55994. 66779. 12924. o
1 1 7 14028. 18932. 2222. o
-1 1 7 10520. 11187. 1627. o
3 1 7 3666220. 3647470. 32701. o
-3 1 7 3646010. 3630240. 33984. o
5 1 7 1802910. 1757290. 36926. o
-5 1 7 1787410. 1789290. 29666. o
-7 1 7 390726. 407294. 11078. o
9 1 7 110601. 144762. 13675. o
-9 1 7 107760. 114720. 5414. o
-11 1 7 102037. 122888. 9623. o
1 3 7 1730550. 1750140. 30839. o
-1 3 7 1730720. 1795330. 23032. o
3 3 7 161677. 167527. 8731. o
-3 3 7 164803. 175006. 6196. o
-5 3 7 2676560. 2655450. 30792. o
7 3 7 158609. 156872. 8058. o
-7 3 7 158039. 167324. 5820. o
9 3 7 99111. 95835. 12486. o
-9 3 7 96081. 110089. 6822. o
-11 3 7 262536. 273783. 14160. o
1 5 7 4005850. 3999380. 65543. o
3 5 7 139910. 141773. 6994. o
-3 5 7 133376. 130633. 5242. o
5 5 7 380236. 387893. 15740. o
-5 5 7 348412. 345319. 9185. o
7 5 7 945954. 907091. 37160. o
-7 5 7 997066. 971852. 16789. o
9 5 7 228098. 259795. 19308. o
-9 5 7 222809. 265036. 16851. o
-11 5 7 196033. 213356. 15396. o
1 7 7 163750. 160611. 7182. o
-1 7 7 150217. 151709. 13972. o
3 7 7 1117580. 1145010. 22234. o
-3 7 7 1144960. 1182690. 28445. o
5 7 7 1200020. 1172020. 25895. o
-5 7 7 1198380. 1173180. 21842. o
-7 7 7 429395. 412943. 9638. o
9 7 7 168202. 152037. 15318. o
-9 7 7 155335. 152773. 11328. o
-11 7 7 112990. 116723. 15412. o
1 9 7 2907460. 2943560. 44499. o
-1 9 7 2896990. 2940680. 56969. o
3 9 7 1401600. 1435190. 20215. o
-3 9 7 1428140. 1494540. 35314. o
5 9 7 236826. 224449. 9278. o
-5 9 7 227988. 226608. 10655. o
7 9 7 807061. 806875. 34626. o
-7 9 7 790919. 744602. 19198. o
-9 9 7 838254. 826449. 28821. o
1 11 7 857320. 875908. 20904. o
-1 11 7 848589. 880179. 27647. o
3 11 7 394987. 399675. 9998. o
-3 11 7 383212. 389379. 17493. o
5 11 7 55200. 54825. 5116. o
-5 11 7 49753. 55733. 7119. o
7 11 7 200741. 223260. 17978. o
-7 11 7 209323. 220882. 20106. o
-9 11 7 193541. 167543. 17524. o
1 13 7 933223. 958803. 20247. o
-1 13 7 893878. 911331. 42887. o
3 13 7 24455. 20669. 3145. o
-3 13 7 26850. 34188. 10045. o
5 13 7 238218. 230332. 10530. o
-5 13 7 236867. 259169. 22484. o
7 13 7 1373250. 1424320. 50961. o
-7 13 7 1370960. 1311010. 55921. o
-9 13 7 193447. 201386. 20466. o
1 15 7 1043160. 1071410. 26943. o
-1 15 7 1049730. 1089550. 34735. o
3 15 7 247871. 238813. 9450. o
-3 15 7 253116. 258934. 23767. o
5 15 7 285535. 269073. 11860. o
-5 15 7 298118. 294264. 25566. o
7 15 7 154622. 152350. 16757. o
-7 15 7 156312. 160486. 18964. o
1 17 7 222830. 212135. 11876. o
-1 17 7 239394. 240800. 16178. o
3 17 7 1406660. 1428590. 32576. o
-3 17 7 1380430. 1371060. 42856. o
5 17 7 149338. 148313. 9357. o
-5 17 7 138833. 153586. 14332. o
1 19 7 102665. 107398. 9075. o
-1 19 7 100179. 107413. 12204. o
3 19 7 390719. 368914. 15975. o
-3 19 7 387519. 391538. 22453. o
5 19 7 155628. 171705. 18823. o
1 21 7 219024. 198805. 20606. o
3 21 7 260473. 258934. 23845. o
0 0 8 657820. 674443. 15866. o
4 0 8 2320730. 2457180. 65215. o
-4 0 8 2363030. 2428790. 34767. o
8 0 8 3960040. 4315680. 109463. o
-8 0 8 3978840. 4423000. 112937. o
-12 0 8 271991. 306828. 25692. o
0 2 8 22841. 22140. 2097. o
2 2 8 1565320. 1561820. 41917. o
-2 2 8 1571790. 1634690. 17493. o
4 2 8 58527. 62727. 4272. o
-4 2 8 60690. 55623. 3114. o
-6 2 8 490400. 528758. 11484. o
8 2 8 118699. 134732. 15506. o
-8 2 8 118859. 119555. 5320. o
10 2 8 676046. 769793. 34532. o
-10 2 8 686845. 768291. 23392. o
-12 2 8 24385. 34031. 8903. o
0 4 8 2318440. 2350750. 39820. o
2 4 8 35021. 40822. 3880. o
-2 4 8 35092. 40524. 3004. o
4 4 8 23165. 21608. 3708. o
-4 4 8 24782. 29556. 2816. o
6 4 8 29430. 34954. 7244. o
-6 4 8 29544. 27162. 2848. o
8 4 8 338121. 361403. 13112. o
-8 4 8 331715. 337714. 9231. o
10 4 8 3417. 15866. 9059. <
-10 4 8 3170. 7636. 4569. <
-12 4 8 120602. 125673. 16523. o
0 6 8 41691. 44139. 4694. o
2 6 8 3365730. 3487660. 49912. o
-2 6 8 3322590. 3378150. 60536. o
4 6 8 136710. 139442. 6071. o
-4 6 8 138655. 139567. 6728. o
6 6 8 160877. 164320. 14364. o
-6 6 8 158645. 157560. 7495. o
8 6 8 13141. 17962. 6493. <
-8 6 8 10779. 11484. 2660. o
10 6 8 229837. 251033. 20090. o
-10 6 8 224094. 233868. 15443. o
0 8 8 5773. 8793. 4944. <
2 8 8 87211. 92189. 6102. o
-2 8 8 84233. 104034. 12251. o
4 8 8 596597. 616363. 14098. o
-4 8 8 618073. 629053. 14864. o
6 8 8 25420. 26286. 6931. o
-6 8 8 22903. 29165. 3505. o
-8 8 8 60630. 60630. 7495. o
10 8 8 6354. 15897. 6822. <
-10 8 8 6729. 6540. 6259. <
0 10 8 469171. 456706. 18807. o
2 10 8 508567. 545015. 13456. o
-2 10 8 530887. 547691. 20403. o
4 10 8 64200. 60865. 5148. o
-4 10 8 56387. 54481. 6994. o
6 10 8 253919. 268870. 11876. o
-6 10 8 253891. 260827. 13863. o
-8 10 8 32522. 34328. 8199. o
10 10 8 1065020. 1168310. 49709. o
0 12 8 43744. 64448. 11923. o
2 12 8 74719. 67859. 5304. o
-2 12 8 77664. 101217. 14035. o
4 12 8 3621540. 3713120. 47018. o
-4 12 8 3606640. 3662990. 104315. o
6 12 8 47359. 53292. 5101. o
-6 12 8 49444. 46986. 10092. o
8 12 8 595318. 591360. 30292. o
-8 12 8 610497. 566263. 33530. o
0 14 8 1531. 3145. 5179. <
2 14 8 196370. 194267. 10389. o
-2 14 8 197590. 211901. 20638. o
4 14 8 93073. 103596. 5930. o
-4 14 8 95309. 97556. 14864. o
6 14 8 594837. 658171. 24299. o
-6 14 8 585998. 585258. 36081. o
-8 14 8 85443. 94051. 14817. o
0 16 8 2041. 4866. 5023. <
2 16 8 748. -2785. 3317. <
-2 16 8 775. 3505. 5539. <
4 16 8 761432. 800225. 22594. o
-4 16 8 746325. 767509. 42809. o
6 16 8 15004. 18025. 4631. o
-6 16 8 15094. 19042. 7573. <
0 18 8 63512. 58049. 6775. o
2 18 8 583608. 567624. 20200. o
-2 18 8 600373. 584570. 26677. o
4 18 8 78433. 81863. 7416. o
-4 18 8 82827. 86963. 11297. o
6 18 8 132367. 169874. 19558. o
0 20 8 997914. 1007320. 35408. o
2 20 8 46795. 53261. 6931. o
4 20 8 188425. 201918. 22390. o
1 1 9 432608. 445472. 9967. o
-1 1 9 436740. 435881. 6384. o
3 1 9 278071. 274847. 5680. o
-3 1 9 288313. 277726. 5914. o
-5 1 9 555212. 564745. 12408. o
7 1 9 347124. 330314. 14927. o
-7 1 9 339764. 349387. 11140. o
9 1 9 130083. 144527. 10358. o
-9 1 9 131808. 135780. 10530. o
-11 1 9 32898. 35377. 5523. o
1 3 9 4128440. 4021340. 63932. o
-1 3 9 4109990. 4101560. 46642. o
3 3 9 13922. 13378. 2644. o
-3 3 9 12553. 11625. 2222. o
5 3 9 1648930. 1566720. 51571. o
-5 3 9 1654350. 1651180. 26114. o
7 3 9 358205. 363140. 22562. o
-7 3 9 361213. 358164. 7589. o
9 3 9 271949. 272813. 20262. o
-9 3 9 273886. 280088. 10499. o
-11 3 9 226003. 259685. 17180. o
1 5 9 220123. 224966. 9231. o
-1 5 9 213116. 227579. 14911. o
3 5 9 252026. 262392. 9936. o
-3 5 9 255052. 257714. 7604. o
5 5 9 854320. 853392. 25191. o
-5 5 9 861006. 796705. 17164. o
7 5 9 126254. 121307. 12768. o
-7 5 9 122953. 117850. 5054. o
9 5 9 80370. 76324. 11594. o
-9 5 9 80722. 80861. 6822. o
-11 5 9 121447. 128505. 15553. o
1 7 9 201656. 221821. 8715. o
-1 7 9 202239. 200354. 15474. o
3 7 9 742200. 732335. 22719. o
-3 7 9 746834. 727407. 17649. o
5 7 9 155691. 148845. 7933. o
-5 7 9 151628. 145028. 6337. o
-7 7 9 881347. 884936. 18776. o
9 7 9 60813. 58424. 10045. o
-9 7 9 60928. 46079. 6462. o
-11 7 9 131163. 130398. 15787. o
1 9 9 1222110. 1268400. 25081. o
-1 9 9 1236780. 1240460. 32686. o
3 9 9 125133. 131102. 5867. o
-3 9 9 128664. 138519. 9920. o
5 9 9 575568. 582348. 16147. o
-5 9 9 612131. 613218. 17258. o
7 9 9 442795. 455392. 26662. o
-7 9 9 450535. 440559. 15240. o
9 9 9 156075. 159469. 16851. o
-9 9 9 156901. 143479. 11750. o
1 11 9 282533. 280135. 11250. o
-1 11 9 279830. 262830. 20888. o
3 11 9 540769. 555357. 12001. o
-3 11 9 539033. 557094. 31543. o
5 11 9 272452. 270544. 11109. o
-5 11 9 278736. 255914. 21201. o
7 11 9 72940. 74509. 10874. o
-7 11 9 72388. 76308. 11876. o
-9 11 9 47568. 52744. 10906. o
1 13 9 245348. 250735. 9889. o
-1 13 9 243743. 263393. 22515. o
3 13 9 380299. 376393. 11453. o
-3 13 9 381823. 398110. 27554. o
5 13 9 120112. 119258. 7714. o
-5 13 9 117333. 103204. 15021. o
7 13 9 383307. 389692. 25175. o
-7 13 9 387004. 365268. 27460. o
-9 13 9 16789. 15271. 7870. <
1 15 9 398848. 406794. 15897. o
-1 15 9 393338. 389833. 20106. o
3 15 9 104411. 107413. 6384. o
-3 15 9 100553. 105238. 15678. o
5 15 9 149615. 146498. 8934. o
-5 15 9 143893. 133214. 17164. o
7 15 9 293097. 304544. 24409. o
-7 15 9 289005. 259216. 24158. o
1 17 9 59054. 55295. 6806. o
-1 17 9 56069. 54262. 8950. o
3 17 9 431561. 430827. 16820. o
-3 17 9 441619. 431813. 23000. o
5 17 9 23117. 31465. 6446. o
-5 17 9 24491. 21561. 7354. <
1 19 9 82367. 91376. 8559. o
-1 19 9 84208. 68109. 9654. o
3 19 9 139090. 151505. 10593. o
5 19 9 187054. 201339. 21655. o
1 21 9 254114. 275551. 25034. o
2 0 10 9037880. 8391010. 97306. o
-2 0 10 9070160. 8515650. 86838. o
6 0 10 1069350. 1018010. 40212. o
-6 0 10 1098640. 1061410. 20888. o
10 0 10 90269. 89952. 12361. o
-10 0 10 92868. 93441. 12846. o
0 2 10 1759390. 1688600. 20497. o
2 2 10 90462. 95068. 5820. o
-2 2 10 91880. 94270. 3442. o
4 2 10 560264. 554575. 10906. o
-4 2 10 546136. 535439. 8746. o
6 2 10 15397. 17430. 4757. o
-6 2 10 14127. 13112. 2535. o
8 2 10 947170. 941326. 39273. o
-8 2 10 904169. 885249. 17728. o
10 2 10 33221. 38303. 9294. o
-10 2 10 32712. 31637. 4944. o
-12 2 10 152645. 151458. 17415. o
0 4 10 207. 2660. 2300. <
2 4 10 308167. 294327. 8887. o
-2 4 10 303812. 295625. 8543. o
4 4 10 11442. 12486. 3098. o
-4 4 10 9499. 12814. 2707. o
6 4 10 32122. 33343. 6775. o
-6 4 10 33569. 37552. 2942. o
8 4 10 19449. 14989. 3583. o
-8 4 10 20710. 20653. 2503. o
10 4 10 856237. 806421. 38850. o
-10 4 10 867058. 942734. 31950. o
-12 4 10 9826. 15365. 6697. <
0 6 10 923871. 919749. 21827. o
2 6 10 8695. 7636. 2253. o
-2 6 10 9262. 15819. 2848. o
4 6 10 1567210. 1516550. 27037. o
-4 6 10 1588300. 1519100. 25347. o
6 6 10 59125. 46095. 8903. o
-6 6 10 61095. 61225. 4397. o
8 6 10 462250. 448554. 27022. o
-8 6 10 459661. 435380. 14958. o
10 6 10 7347. -1878. 5648. <
-10 6 10 7045. 9153. 4131. <
0 8 10 37166. 37896. 3974. o
2 8 10 229356. 220162. 9982. o
-2 8 10 221852. 204078. 11798. o
4 8 10 16517. 17978. 3427. o
-4 8 10 17070. 17211. 3145. o
6 8 10 246307. 256712. 19542. o
-6 8 10 237731. 224559. 8997. o
-8 8 10 62473. 57720. 7291. o
10 8 10 144405. 138362. 15740. o
-10 8 10 141533. 130101. 11532. o
0 10 10 2876210. 2807000. 39007. o
2 10 10 8447. 5727. 3161. <
-2 10 10 8026. 11798. 4522. <
4 10 10 1170760. 1150790. 25081. o
-4 10 10 1189930. 1149220. 32122. o
6 10 10 28929. 37771. 4475. o
-6 10 10 30852. 27209. 9247. <
-8 10 10 605115. 557298. 31356. o
10 10 10 19976. 21936. 7933. <
0 12 10 101025. 100404. 7119. o
2 12 10 1910880. 1858210. 30479. o
-2 12 10 1969020. 1892950. 65841. o
4 12 10 6392. 5993. 2175. <
-4 12 10 5781. 8840. 5867. <
6 12 10 456415. 466955. 15177. o
-6 12 10 447516. 422096. 28758. o
8 12 10 40587. 34016. 8027. o
-8 12 10 39943. 37035. 8934. o
10 12 10 407550. 375861. 28398. o
0 14 10 2131600. 2151990. 39820. o
2 14 10 1461. 47. 3646. <
-2 14 10 2296. -3912. 8246. <
4 14 10 521023. 497450. 16804. o
-4 14 10 525479. 511688. 32764. o
6 14 10 876. 1690. 3192. <
-6 14 10 476. 7072. 6650. <
-8 14 10 139945. 157388. 18416. o
0 16 10 73979. 83333. 7870. o
2 16 10 228543. 226843. 12189. o
-2 16 10 225890. 237905. 23313. o
4 16 10 40070. 44452. 5852. o
-4 16 10 38197. 28367. 8105. o
6 16 10 196142. 179732. 13096. o
-6 16 10 204165. 206065. 22093. o
0 18 10 273. 2879. 4569. <
2 18 10 24027. 29118. 5320. o
-2 18 10 23364. 29009. 7589. o
4 18 10 327125. 298410. 14144. o
-4 18 10 323204. 308831. 20231. o
6 18 10 5359. 12533. 6259. <
0 20 10 4501. -391. 4772. <
2 20 10 387548. 387815. 20763. o
1 1 11 1259350. 1313180. 21608. o
-1 1 11 1264150. 1242720. 13472. o
3 1 11 547753. 531809. 9716. o
-3 1 11 529880. 534814. 9153. o
5 1 11 79385. 78452. 10311. o
-5 1 11 94658. 99340. 4991. o
7 1 11 594161. 586244. 21295. o
-7 1 11 579599. 598057. 14770. o
9 1 11 300722. 324587. 16022. o
-9 1 11 289064. 289179. 15005. o
-11 1 11 474638. 503974. 19089. o
1 3 11 3276910. 3278370. 39069. o
-1 3 11 3282420. 3194380. 34907. o
3 3 11 1388830. 1360040. 28790. o
-3 3 11 1370060. 1343800. 15646. o
5 3 11 946047. 948695. 18979. o
-5 3 11 941138. 942233. 16335. o
7 3 11 1215190. 1235700. 46814. o
-7 3 11 1206120. 1236330. 20294. o
9 3 11 182678. 169436. 16178. o
-9 3 11 176993. 186538. 13253. o
-11 3 11 94650. 85759. 12783. o
1 5 11 493872. 502879. 15287. o
-1 5 11 499135. 502660. 13284. o
3 5 11 306765. 314558. 11532. o
-3 5 11 314381. 314964. 9701. o
5 5 11 1682280. 1698400. 39414. o
-5 5 11 1681350. 1593990. 24033. o
7 5 11 581602. 529666. 29228. o
-7 5 11 595345. 577810. 14332. o
9 5 11 139505. 163162. 16288. o
-9 5 11 142726. 146420. 8668. o
-11 5 11 1304. -1862. 4178. <
1 7 11 670896. 705674. 21389. o
-1 7 11 660646. 667903. 29713. o
3 7 11 113374. 124797. 7620. o
-3 7 11 102436. 106209. 5335. o
5 7 11 6476. 6728. 2566. <
-5 7 11 5480. 10421. 2597. o
7 7 11 917573. 909845. 39742. o
-7 7 11 902878. 850122. 17368. o
9 7 11 501372. 501408. 30088. o
-9 7 11 488909. 494195. 16726. o
1 9 11 307313. 321442. 10327. o
-1 9 11 319735. 323601. 15521. o
3 9 11 1054170. 989095. 16757. o
-3 9 11 1032430. 1025300. 29118. o
5 9 11 1351910. 1359960. 27507. o
-5 9 11 1409180. 1380600. 28758. o
7 9 11 92703. 103940. 13112. o
-7 9 11 93238. 93738. 9388. o
9 9 11 130082. 124640. 15412. o
-9 9 11 132666. 123279. 10780. o
1 11 11 155676. 169952. 8934. o
-1 11 11 149871. 162677. 16225. o
3 11 11 960524. 938869. 22922. o
-3 11 11 958278. 972212. 43263. o
5 11 11 616295. 617552. 17712. o
-5 11 11 648424. 623983. 34438. o
7 11 11 342592. 356944. 24549. o
-7 11 11 343005. 350904. 25097. o
-9 11 11 31644. 33969. 9059. o
1 13 11 607934. 611090. 18541. o
-1 13 11 604625. 669608. 36566. o
3 13 11 301276. 307188. 13206. o
-3 13 11 319278. 344255. 26130. o
5 13 11 323283. 330376. 13206. o
-5 13 11 321335. 297800. 24534. o
7 13 11 473871. 439651. 28070. o
-7 13 11 465937. 478643. 31668. o
-9 13 11 335934. 358931. 27475. o
1 15 11 7982. 8230. 3802. <
-1 15 11 7501. 4397. 7510. <
3 15 11 137418. 134795. 7260. o
-3 15 11 136505. 144730. 18103. o
5 15 11 46423. 44295. 5257. o
-5 15 11 51137. 37786. 10624. o
-7 15 11 74636. 78593. 13706. o
1 17 11 356576. 347885. 15772. o
-1 17 11 356424. 376627. 20685. o
3 17 11 584790. 582661. 20121. o
-3 17 11 572094. 594458. 38271. o
5 17 11 300223. 313134. 18087. o
-5 17 11 311397. 331096. 28602. o
1 19 11 109970. 110981. 9341. o
-1 19 11 112544. 111732. 9591. o
3 19 11 155844. 152256. 10561. o
5 19 11 139457. 127738. 17712. o
0 0 12 15586100. 15272500. 153336. o
4 0 12 3315830. 3276660. 72772. o
-4 0 12 3319950. 3388770. 88231. o
8 0 12 722804. 729159. 35346. o
-8 0 12 709151. 713215. 32654. o
0 2 12 769854. 755570. 11484. o
2 2 12 114756. 117396. 6853. o
-2 2 12 116205. 121558. 3896. o
4 2 12 536060. 545156. 9904. o
-4 2 12 550492. 556766. 8872. o
6 2 12 809666. 839780. 26036. o
-6 2 12 799464. 823867. 17555. o
8 2 12 141360. 145591. 11219. o
-8 2 12 140856. 137611. 8199. o
10 2 12 15646. 24409. 7933. o
-10 2 12 14516. 15130. 4537. o
-12 2 12 252000. 235026. 21311. o
0 4 12 23466. 30605. 2988. o
2 4 12 5222. 9716. 2644. o
-2 4 12 4257. 8183. 2065. o
4 4 12 4680340. 4892240. 56515. o
-4 4 12 4688340. 4938790. 52197. o
6 4 12 165403. 156027. 10843. o
-6 4 12 168742. 163037. 6853. o
8 4 12 1227410. 1214400. 49130. o
-8 4 12 1223230. 1308100. 27522. o
10 4 12 19305. 22750. 7823. <
-10 4 12 21160. 23798. 5085. o
0 6 12 185073. 199900. 9904. o
2 6 12 3721670. 3849290. 46893. o
-2 6 12 3722820. 3827950. 43012. o
4 6 12 627395. 632276. 21702. o
-4 6 12 620320. 600419. 13253. o
6 6 12 8831. 24456. 8199. <
-6 6 12 8721. 8559. 3161. <
8 6 12 127523. 131806. 15083. o
-8 6 12 124180. 133214. 8324. o
10 6 12 269116. 284454. 23094. o
-10 6 12 269802. 273345. 16460. o
0 8 12 5048840. 5387310. 87042. o
2 8 12 64365. 62727. 4444. o
-2 8 12 70843. 63290. 7119. o
4 8 12 943169. 964858. 22124. o
-4 8 12 965238. 977015. 19668. o
6 8 12 236179. 227860. 19120. o
-6 8 12 234186. 238281. 13816. o
8 8 12 1189360. 1224900. 50710. o
-8 8 12 1191940. 1235340. 35267. o
10 8 12 89270. 86338. 13080. o
-10 8 12 88008. 102250. 16053. o
0 10 12 413675. 390349. 13253. o
2 10 12 902741. 921752. 28696. o
-2 10 12 917624. 960868. 42261. o
4 10 12 192729. 197600. 9842. o
-4 10 12 179125. 171564. 17164. o
6 10 12 1244150. 1292920. 30432. o
-6 10 12 1246340. 1299400. 51117. o
8 10 12 48619. 37317. 8856. o
-8 10 12 51849. 48395. 7244. o
10 10 12 397023. 421267. 29275. o
0 12 12 7550. 10734. 3458. o
2 12 12 425539. 429685. 15287. o
-2 12 12 420617. 479347. 30526. o
4 12 12 512557. 547159. 17305. o
-4 12 12 531834. 559973. 33014. o
6 12 12 2811. -250. 4397. <
-6 12 12 1615. -4944. 6259. <
8 12 12 122618. 128301. 15114. o
-8 12 12 121705. 140068. 16116. o
10 12 12 46193. 52682. 11375. o
0 14 12 42712. 36722. 4788. o
2 14 12 1417020. 1450950. 32529. o
-2 14 12 1428560. 1463250. 59738. o
4 14 12 73916. 71129. 6775. o
-4 14 12 77564. 89091. 14410. o
6 14 12 23021. 36316. 6259. o
-6 14 12 21140. 11672. 6133. <
-8 14 12 151106. 139864. 17884. o
0 16 12 1153840. 1201070. 30871. o
2 16 12 141537. 144934. 9951. o
-2 16 12 141681. 138174. 17978. o
4 16 12 50173. 47863. 6102. o
-4 16 12 46677. 41510. 10374. o
6 16 12 22868. 19073. 5069. o
-6 16 12 22715. 22875. 8997. <
0 18 12 63707. 63368. 7667. o
2 18 12 256968. 262204. 13863. o
-2 18 12 258966. 255148. 17931. o
4 18 12 11667. 9763. 3489. <
6 18 12 745062. 780495. 43466. o
0 20 12 510912. 522218. 25206. o
2 20 12 33313. 43748. 7698. o
1 1 13 306300. 297503. 7260. o
-1 1 13 302886. 301602. 6384. o
3 1 13 995229. 971993. 15240. o
-3 1 13 975808. 966814. 12752. o
5 1 13 279911. 281403. 14301. o
-5 1 13 296959. 301430. 11078. o
7 1 13 8333. 7886. 4944. <
-7 1 13 12472. 13785. 3145. o
9 1 13 243448. 236591. 14583. o
-9 1 13 250370. 280276. 20231. o
-11 1 13 492107. 483822. 29822. o
1 3 13 727219. 699478. 14285. o
-1 3 13 756500. 761579. 11970. o
3 3 13 1015870. 972572. 16335. o
-3 3 13 1032540. 1003970. 14317. o
5 3 13 115936. 117318. 5617. o
-5 3 13 127312. 130163. 4350. o
7 3 13 1299070. 1268790. 48770. o
-7 3 13 1269150. 1294660. 28884. o
9 3 13 136674. 117552. 14645. o
-9 3 13 148833. 141507. 11234. o
-11 3 13 132172. 141992. 15834. o
1 5 13 854179. 866191. 22500. o
-1 5 13 880542. 879506. 14755. o
3 5 13 678193. 662661. 21373. o
-3 5 13 688379. 673317. 10937. o
5 5 13 224839. 223229. 12752. o
-5 5 13 224165. 224199. 6994. o
7 5 13 1649860. 1650710. 58643. o
-7 5 13 1649480. 1702540. 31903. o
9 5 13 595668. 587574. 33092. o
-9 5 13 590398. 578139. 17681. o
1 7 13 108853. 110621. 6697. o
-1 7 13 108350. 105567. 6775. o
3 7 13 372333. 388753. 13738. o
-3 7 13 349378. 350466. 9951. o
5 7 13 101388. 94442. 7057. o
-5 7 13 106994. 112561. 7323. o
7 7 13 39381. 47284. 6681. o
-7 7 13 42056. 38928. 4412. o
9 7 13 73430. 72475. 11876. o
-9 7 13 65630. 62962. 6227. o
1 9 13 790635. 760421. 20575. o
-1 9 13 758294. 751643. 18541. o
3 9 13 916797. 904509. 20372. o
-3 9 13 898855. 881384. 39038. o
5 9 13 710676. 747825. 22296. o
-5 9 13 715988. 704156. 33969. o
7 9 13 15937. 27647. 7589. o
-7 9 13 15221. 19887. 4850. o
9 9 13 325697. 329015. 25566. o
-9 9 13 323900. 334366. 17696. o
1 11 13 54385. 56781. 5633. o
-1 11 13 60822. 58143. 6603. o
3 11 13 61687. 66686. 5570. o
-3 11 13 64827. 73554. 12204. o
5 11 13 13445. 24972. 4209. o
-5 11 13 14627. 13878. 7010. <
7 11 13 275504. 290321. 22953. o
-7 11 13 277073. 276364. 22484. o
-9 11 13 356274. 356193. 25864. o
1 13 13 1551420. 1515900. 32357. o
-1 13 13 1551770. 1617520. 38710. o
3 13 13 145250. 140740. 9044. o
-3 13 13 150704. 133965. 16491. o
5 13 13 188345. 185818. 10155. o
-5 13 13 182781. 213121. 21076. o
7 13 13 305581. 322897. 24456. o
-7 13 13 297800. 272390. 23673. o
-9 13 13 313658. 289414. 24690. o
1 15 13 105157. 97196. 8355. o
-1 15 13 103427. 118788. 11250. o
3 15 13 149191. 156637. 10186. o
-3 15 13 139079. 124452. 17524. o
5 15 13 701759. 674819. 27256. o
-5 15 13 718443. 686022. 40227. o
7 15 13 104626. 114454. 15208. o
-7 15 13 97625. 80501. 14082. o
1 17 13 47424. 43090. 6180. o
-1 17 13 56824. 42074. 7761. o
3 17 13 230113. 232773. 12580. o
-3 17 13 228219. 224794. 23376. o
5 17 13 653943. 611059. 26521. o
-5 17 13 667904. 687148. 41604. o
1 19 13 152544. 150003. 11000. o
-1 19 13 150582. 164617. 14332. o
3 19 13 124792. 113781. 9435. o
2 0 14 519171. 477500. 14911. o
-2 0 14 521390. 493835. 11578. o
6 0 14 888367. 829422. 37786. o
10 0 14 449062. 490158. 30041. o
0 2 14 211193. 197600. 5727. o
2 2 14 300597. 308064. 9231. o
-2 2 14 302434. 296298. 6572. o
4 2 14 743588. 701355. 10921. o
-4 2 14 740773. 682266. 10968. o
6 2 14 28215. 24675. 5680. o
-6 2 14 25230. 31841. 4491. o
8 2 14 117436. 120134. 10468. o
-8 2 14 115999. 113547. 7244. o
10 2 14 168311. 152068. 16773. o
-10 2 14 163452. 155166. 12752. o
0 4 14 37406. 45516. 3520. o
2 4 14 452660. 433236. 11563. o
-2 4 14 429435. 416682. 11516. o
4 4 14 16959. 17289. 2175. o
-4 4 14 14705. 17759. 2144. o
6 4 14 77674. 77028. 5758. o
-6 4 14 84029. 81487. 7479. o
8 4 14 17442. 24440. 7323. o
-8 4 14 17412. 19668. 3301. o
10 4 14 132747. 105692. 14770. o
-10 4 14 131354. 136563. 11750. o
0 6 14 2911730. 2854680. 44076. o
2 6 14 163444. 166322. 6994. o
-2 6 14 149046. 156966. 5758. o
4 6 14 1240200. 1214220. 25864. o
-4 6 14 1207040. 1155060. 17430. o
6 6 14 146788. 156982. 11438. o
-6 6 14 146146. 151051. 6337. o
8 6 14 121533. 119790. 14880. o
-8 6 14 116938. 120541. 7604. o
10 6 14 120446. 105974. 14551. o
-10 6 14 121263. 106475. 15740. o
0 8 14 37060. 32998. 3646. o
2 8 14 479059. 450150. 12314. o
-2 8 14 476550. 474434. 12408. o
4 8 14 26882. 27726. 6462. o
-4 8 14 29616. 35533. 5883. o
6 8 14 1493480. 1399470. 54669. o
-6 8 14 1532610. 1484320. 38021. o
8 8 14 1948. 7104. 6446. <
-8 8 14 2787. 8261. 2926. <
10 8 14 112798. 100998. 14739. o
0 10 14 5354. 4897. 2785. <
2 10 14 95020. 104128. 6916. o
-2 10 14 105613. 102766. 7573. o
4 10 14 40026. 38444. 5132. o
-4 10 14 38945. 39695. 9247. o
6 10 14 376036. 376533. 14974. o
-6 10 14 371556. 376674. 25707. o
8 10 14 11553. 6963. 4475. <
-8 10 14 11598. 7510. 3755. <
10 10 14 15318. 20826. 7604. <
0 12 14 26650. 30777. 4584. o
2 12 14 527758. 513456. 22281. o
-2 12 14 528371. 574431. 34438. o
4 12 14 74094. 74180. 6775. o
-4 12 14 67984. 68000. 12220. o
6 12 14 544720. 557047. 32967. o
-6 12 14 509863. 507495. 32670. o
8 12 14 37754. 35439. 8684. o
-8 12 14 35370. 40556. 10280. o
0 14 14 8418. 6462. 3301. <
2 14 14 235113. 222619. 15021. o
-2 14 14 231061. 212167. 21420. o
4 14 14 208132. 186100. 10577. o
-4 14 14 205606. 215531. 22312. o
6 14 14 93455. 90625. 9920. o
-6 14 14 95380. 119884. 16554. o
-8 14 14 143763. 125360. 16961. o
0 16 14 8051. 4099. 4350. <
2 16 14 589844. 562524. 19996. o
-2 16 14 584775. 557736. 37067. o
4 16 14 6638. 11923. 3614. o
-4 16 14 7162. 18760. 10358. <
6 16 14 560225. 553965. 25144. o
-6 16 14 571007. 577591. 37552. o
0 18 14 984862. 979801. 28884. o
2 18 14 183893. 164054. 11125. o
-2 18 14 184816. 177963. 14755. o
4 18 14 269897. 239595. 16726. o
6 18 14 16760. 17571. 8715. <
2 20 14 361318. 345632. 19902. o
1 1 15 382. 2942. 1612. <
-1 1 15 1258. 4178. 1784. <
3 1 15 753624. 739423. 11829. o
-3 1 15 783352. 789977. 12674. o
5 1 15 652115. 630476. 13816. o
-5 1 15 659220. 664742. 16961. o
7 1 15 44707. 48551. 7057. o
9 1 15 193421. 202888. 13675. o
1 3 15 306768. 302760. 10139. o
-1 3 15 264908. 273063. 6978. o
3 3 15 1935430. 1916840. 31027. o
-3 3 15 1919710. 1884200. 21420. o
5 3 15 485599. 475701. 9106. o
-5 3 15 489339. 457316. 9951. o
7 3 15 175108. 145090. 16038. o
-7 3 15 177351. 178918. 6869. o
9 3 15 502013. 468206. 30198. o
-9 3 15 509691. 532967. 22296. o
1 5 15 618800. 623717. 14035. o
-1 5 15 596470. 593394. 12095. o
3 5 15 525004. 493757. 14833. o
-3 5 15 531632. 511015. 11031. o
5 5 15 138124. 138300. 5789. o
-5 5 15 134817. 136125. 5304. o
7 5 15 123195. 111951. 7792. o
-7 5 15 110980. 112373. 9216. o
9 5 15 180983. 178918. 18698. o
-9 5 15 190203. 214655. 13675. o
1 7 15 383222. 366269. 11062. o
-1 7 15 390997. 397390. 10593. o
3 7 15 513843. 551508. 17415. o
-3 7 15 509915. 517915. 12330. o
5 7 15 312134. 309206. 12908. o
-5 7 15 295455. 296580. 10749. o
7 7 15 4510. 6071. 4068. <
-7 7 15 4828. 4694. 4006. <
9 7 15 28848. 17117. 6869. <
-9 7 15 33129. 40697. 10139. o
1 9 15 618228. 627065. 17540. o
-1 9 15 609554. 625939. 22985. o
3 9 15 939236. 930968. 21295. o
-3 9 15 911100. 935317. 41901. o
5 9 15 6491. 4068. 2848. <
-5 9 15 6658. 8746. 5289. <
7 9 15 533719. 476452. 30667. o
-7 9 15 541898. 561632. 22437. o
9 9 15 460096. 462683. 31246. o
-9 9 15 459981. 486278. 21733. o
1 11 15 275676. 284798. 15959. o
-1 11 15 266281. 278320. 11578. o
3 11 15 41600. 40556. 4710. o
-3 11 15 38163. 40196. 9654. o
5 11 15 132005. 127425. 8308. o
-5 11 15 130046. 106506. 14285. o
7 11 15 121120. 130304. 16022. o
-7 11 15 120496. 132557. 16085. o
9 11 15 14829. 22077. 8825. <
-9 11 15 17922. 31387. 8653. o
1 13 15 137947. 141398. 8950. o
-1 13 15 153363. 135342. 8465. o
3 13 15 136256. 126721. 8997. o
-3 13 15 138258. 147547. 17806. o
5 13 15 163150. 178073. 10076. o
-5 13 15 157520. 150582. 17947. o
7 13 15 18536. 20653. 7150. <
-7 13 15 18104. 18385. 7980. <
-9 13 15 273568. 279525. 24174. o
1 15 15 346110. 363531. 19840. o
-1 15 15 345577. 359494. 19793. o
3 15 15 675271. 651662. 21123. o
-3 15 15 654453. 689010. 40118. o
5 15 15 86400. 97259. 10499. o
-5 15 15 86751. 96555. 15709. o
7 15 15 241481. 231428. 21874. o
-7 15 15 252254. 239939. 23517. o
1 17 15 40093. 40775. 6180. o
-1 17 15 36667. 43200. 8308. o
3 17 15 35683. 51508. 6744. o
-3 17 15 35856. 37739. 11923. o
5 17 15 201257. 188666. 14927. o
1 19 15 7669. 5289. 5210. <
-1 19 15 9300. 4287. 4991. <
3 19 15 72985. 58721. 8152. o
0 0 16 2905920. 2979970. 35220. o
4 0 16 778140. 835915. 19824. o
-4 0 16 723739. 757620. 22594. o
8 0 16 655859. 655855. 35752. o
0 2 16 9868. 12642. 2159. o
2 2 16 255989. 271498. 6947. o
-2 2 16 251124. 282780. 7370. o
4 2 16 21150. 22547. 2488. o
-4 2 16 21869. 41010. 3333. o
6 2 16 701768. 734135. 26161. o
-6 2 16 726720. 745932. 18369. o
8 2 16 40702. 47753. 7307. o
-8 2 16 43269. 42120. 5523. o
10 2 16 102764. 121104. 15819. o
-10 2 16 102802. 137157. 18416. o
0 4 16 1117820. 1088620. 18588. o
2 4 16 27890. 26145. 3348. o
-2 4 16 29725. 34282. 2816. o
4 4 16 466901. 480911. 9920. o
-4 4 16 477765. 474058. 9920. o
6 4 16 15570. 28680. 4553. o
-6 4 16 15957. 19668. 3833. o
8 4 16 323545. 303965. 24127. o
-8 4 16 347485. 343551. 12595. o
10 4 16 28780. 23908. 8011. <
-10 4 16 27722. 27882. 5695. o
0 6 16 112751. 115534. 7385. o
2 6 16 1345680. 1419610. 21890. o
-2 6 16 1409710. 1498890. 19230. o
4 6 16 1224. 4882. 3082. <
-4 6 16 1314. 4584. 3567. <
6 6 16 3605580. 3641630. 56531. o
-6 6 16 3591440. 3631920. 44890. o
8 6 16 14536. 10671. 5257. <
-8 6 16 13032. 13080. 3098. o
10 6 16 697491. 676931. 38584. o
-10 6 16 702174. 762486. 43623. o
0 8 16 435275. 456753. 14755. o
2 8 16 3113. 6540. 3145. <
-2 8 16 3223. 13566. 3943. o
-4 8 16 470515. 467659. 13190. o
-6 8 16 16789. 12595. 2769. o
8 8 16 882290. 871448. 43529. o
-8 8 16 884139. 911582. 29791. o
10 8 16 11419. 4976. 5930. <
0 10 16 103121. 109244. 7651. o
2 10 16 701780. 730630. 19370. o
-2 10 16 674982. 682939. 20638. o
4 10 16 26307. 23298. 5429. o
-4 10 16 26433. 21842. 7025. o
6 10 16 181142. 183299. 18682. o
-6 10 16 178131. 161707. 11844. o
8 10 16 1136. 1909. 3317. <
-8 10 16 606. 876. 3145. <
10 10 16 123008. 140474. 18087. o
0 12 16 2468480. 2519480. 57955. o
2 12 16 32122. 33280. 4882. o
-2 12 16 29487. 22422. 4318. o
4 12 16 623460. 657420. 19996. o
-4 12 16 617816. 619727. 36347. o
6 12 16 26353. 35971. 10123. o
-6 12 16 23643. 23345. 8887. <
8 12 16 281908. 308706. 25066. o
-8 12 16 278317. 271858. 23438. o
0 14 16 7009. 15365. 5226. <
2 14 16 90456. 89795. 10061. o
-2 14 16 87038. 102610. 10749. o
4 14 16 16625. 23704. 4506. o
-4 14 16 16393. 16053. 8230. <
6 14 16 183358. 177713. 19214. o
-6 14 16 184798. 181797. 20606. o
-8 14 16 17531. 15396. 7072. <
0 16 16 835126. 847259. 32310. o
2 16 16 38167. 44937. 6321. o
-2 16 16 37549. 38756. 7291. o
4 16 16 33580. 39382. 5883. o
-4 16 16 39254. 56390. 12768. o
6 16 16 35460. 36832. 7182. o
-6 16 16 38090. 28633. 9873. <
0 18 16 11042. 7573. 4115. <
2 18 16 769813. 740268. 24612. o
-2 18 16 771465. 786316. 44311. o
4 18 16 17663. 17008. 5320. o
2 20 16 21292. 27616. 9982. <
1 1 17 228710. 243037. 7432. o
-1 1 17 225464. 233055. 6759. o
3 1 17 1300820. 1295090. 17806. o
-3 1 17 1294740. 1336010. 19104. o
5 1 17 1470500. 1419580. 23767. o
-5 1 17 1460120. 1508360. 41839. o
7 1 17 16876. 20434. 6196. o
9 1 17 622926. 636907. 25551. o
1 3 17 1907320. 1876030. 28320. o
-1 3 17 1896940. 1901110. 23423. o
3 3 17 2787940. 2810800. 31809. o
-3 3 17 2790200. 2776800. 29056. o
5 3 17 247748. 243303. 6587. o
-5 3 17 254927. 236607. 7448. o
7 3 17 303698. 298254. 16601. o
-7 3 17 306823. 311115. 10859. o
9 3 17 1100650. 1033440. 48113. o
-9 3 17 1109120. 1151580. 53323. o
1 5 17 1461000. 1472230. 24815. o
-1 5 17 1464910. 1467600. 19934. o
3 5 17 519053. 506791. 15584. o
-3 5 17 528115. 509498. 10421. o
5 5 17 479327. 491676. 11266. o
-5 5 17 488492. 481052. 13800. o
7 5 17 97278. 100560. 14207. o
-7 5 17 100911. 105911. 9341. o
9 5 17 52135. 63134. 12689. o
-9 5 17 55760. 56672. 7385. o
1 7 17 458103. 442562. 11469. o
-1 7 17 468354. 480082. 12095. o
3 7 17 1783960. 1743900. 35752. o
-3 7 17 1804160. 1810490. 40243. o
5 7 17 960562. 930107. 43263. o
-5 7 17 954654. 922472. 20231. o
7 7 17 107667. 110777. 10765. o
-7 7 17 104014. 98464. 9231. o
9 7 17 402048. 431813. 30073. o
-9 7 17 398841. 379553. 29259. o
1 9 17 387220. 385045. 13847. o
-1 9 17 375670. 380210. 14129. o
3 9 17 2897350. 2856180. 53120. o
-3 9 17 2836070. 2844620. 85837. o
5 9 17 381479. 393181. 16351. o
-5 9 17 373707. 367005. 12376. o
7 9 17 410466. 433706. 20857. o
-7 9 17 406272. 389739. 18901. o
9 9 17 90706. 104472. 15099. o
-9 9 17 90586. 94646. 15021. o
1 11 17 1120500. 1144900. 26709. o
-1 11 17 1101910. 1111250. 34407. o
3 11 17 75439. 79297. 6869. o
-3 11 17 69497. 65496. 6306. o
5 11 17 320228. 315559. 15114. o
-5 11 17 326218. 301368. 24502. o
7 11 17 178066. 173802. 18432. o
-7 11 17 168778. 169327. 18353. o
9 11 17 68448. 75432. 13878. o
1 13 17 88440. 87808. 7229. o
-1 13 17 81388. 99637. 10608. o
3 13 17 266581. 265756. 17117. o
-3 13 17 268467. 269026. 24534. o
5 13 17 670043. 647218. 27460. o
-5 13 17 659951. 713591. 40024. o
7 13 17 266223. 254804. 23063. o
-7 13 17 270805. 291839. 25222. o
1 15 17 441625. 460070. 23032. o
-1 15 17 440653. 454281. 22781. o
3 15 17 821436. 830517. 24847. o
-3 15 17 826964. 872372. 47315. o
5 15 17 623984. 631431. 27334. o
-5 15 17 627708. 623905. 39288. o
7 15 17 557902. 504209. 33468. o
-7 15 17 586070. 563619. 36582. o
1 17 17 405113. 421486. 18228. o
-1 17 17 399251. 394809. 22093. o
3 17 17 336697. 334851. 15850. o
-3 17 17 344127. 354534. 21013. o
5 17 17 37108. 48160. 8324. o
1 19 17 150476. 153524. 13566. o
3 19 17 14867. 16976. 7229. <
2 0 18 3492730. 3385810. 63728. o
-2 0 18 3504140. 3397630. 44358. o
6 0 18 6117650. 5827330. 146999. o
10 0 18 599520. 544233. 33984. o
0 2 18 1420080. 1436840. 19949. o
2 2 18 985359. 992208. 14504. o
-2 2 18 965105. 999014. 17274. o
4 2 18 874582. 843097. 13143. o
-4 2 18 854495. 817984. 16132. o
6 2 18 579777. 577263. 23548. o
-6 2 18 569979. 572741. 16335. o
8 2 18 601857. 579813. 24456. o
-8 2 18 607021. 583772. 21514. o
10 2 18 201347. 177353. 18979. o
0 4 18 250101. 268870. 6884. o
2 4 18 1606760. 1553760. 24862. o
-2 4 18 1599390. 1558930. 18291. o
4 4 18 50526. 52916. 3583. o
-4 4 18 54643. 62508. 3959. o
6 4 18 1045890. 1038430. 28383. o
-6 4 18 1054300. 1049720. 38976. o
8 4 18 75099. 85336. 14035. o
-8 4 18 69654. 68579. 7229. o
10 4 18 797701. 714436. 40384. o
-10 4 18 793845. 822271. 46361. o
0 6 18 3842180. 3695660. 43904. o
2 6 18 751803. 732570. 15021. o
-2 6 18 751668. 761047. 16429. o
4 6 18 310544. 311663. 10859. o
-4 6 18 308332. 299490. 14410. o
6 6 18 247044. 247012. 11312. o
-6 6 18 249086. 243945. 9763. o
8 6 18 285710. 258105. 23360. o
-8 6 18 286250. 281199. 11641. o
10 6 18 220251. 237890. 23767. o
0 8 18 308923. 298989. 12267. o
2 8 18 936418. 926837. 19589. o
-2 8 18 972180. 966830. 23861. o
-4 8 18 104121. 109244. 9216. o
6 8 18 261532. 236763. 11578. o
-6 8 18 257577. 254334. 10248. o
8 8 18 49428. 42042. 6900. o
-8 8 18 54549. 54606. 7213. o
10 8 18 26025. 35862. 9763. o
0 10 18 1314160. 1272450. 28539. o
2 10 18 177640. 202372. 10248. o
-2 10 18 194043. 223088. 14238. o
4 10 18 167617. 158734. 13159. o
-4 10 18 165360. 145841. 16194. o
6 10 18 388662. 385796. 28195. o
-6 10 18 389382. 365377. 18150. o
8 10 18 1052250. 1018740. 34704. o
-8 10 18 1068330. 1012440. 32920. o
0 12 18 79106. 85743. 7276. o
2 12 18 1643490. 1608310. 33358. o
-2 12 18 1641000. 1651180. 44702. o
4 12 18 168040. 182501. 14238. o
-4 12 18 182320. 168294. 19167. o
6 12 18 1441030. 1426900. 59457. o
-6 12 18 1419570. 1381020. 57923. o
8 12 18 228716. 222321. 21983. o
-8 12 18 231526. 227047. 21780. o
0 14 18 21400. 18369. 5633. o
2 14 18 184801. 204813. 15114. o
-2 14 18 176214. 177619. 14176. o
4 14 18 1403870. 1351140. 32294. o
-4 14 18 1404000. 1436570. 61194. o
6 14 18 116390. 119133. 16570. o
-6 14 18 111370. 127269. 16961. o
8 14 18 315054. 292512. 25504. o
-8 14 18 319504. 294389. 25832. o
0 16 18 167229. 189198. 15302. o
2 16 18 24928. 30542. 5555. o
-2 16 18 23308. 33796. 8183. o
4 16 18 114391. 121605. 12016. o
-4 16 18 116493. 106803. 16538. o
6 16 18 31872. 29885. 9889. o
0 18 18 9425. 7682. 5695. <
2 18 18 74809. 87699. 10389. o
4 18 18 279847. 239579. 24017. o
1 1 19 871019. 889254. 12361. o
-1 1 19 873626. 924662. 16851. o
3 1 19 682876. 688415. 10264. o
-3 1 19 700942. 720240. 13597. o
5 1 19 358958. 348557. 10045. o
-5 1 19 342405. 357585. 17759. o
7 1 19 106063. 107679. 10593. o
9 1 19 666401. 651224. 26677. o
1 3 19 1511440. 1502500. 21217. o
-1 3 19 1519360. 1531430. 20747. o
3 3 19 1329370. 1361280. 20121. o
-3 3 19 1345910. 1354390. 19058. o
5 3 19 134005. 141085. 5414. o
-5 3 19 136458. 133402. 5633. o
7 3 19 933341. 933158. 31903. o
-7 3 19 932780. 977219. 22328. o
9 3 19 337560. 315027. 26208. o
11 3 19 5323. 3583. 7072. <
1 5 19 479342. 504459. 11172. o
-1 5 19 467333. 466485. 9122. o
3 5 19 378042. 372199. 12095. o
-3 5 19 371042. 383574. 11015. o
5 5 19 614787. 629459. 13378. o
-5 5 19 590069. 587793. 16038. o
7 5 19 209225. 224778. 14989. o
-7 5 19 202226. 196176. 12361. o
9 5 19 19078. 29947. 10061. <
-9 5 19 17511. 13362. 7745. <
1 7 19 980070. 949681. 20153. o
-1 7 19 984109. 983430. 23611. o
3 7 19 259952. 270450. 10499. o
-3 7 19 276143. 297565. 11954. o
5 7 19 157705. 159109. 7589. o
-5 7 19 154057. 144245. 7933. o
7 7 19 56928. 61757. 8183. o
-7 7 19 64606. 64495. 7761. o
9 7 19 777777. 751815. 41948. o
-9 7 19 783759. 799365. 43325. o
1 9 19 479210. 468441. 15991. o
-1 9 19 491988. 480145. 16398. o
3 9 19 2294310. 2356990. 41495. o
-3 9 19 2347350. 2490140. 54872. o
5 9 19 827760. 846649. 42981. o
-5 9 19 834338. 827419. 27397. o
7 9 19 137812. 132729. 11876. o
-7 9 19 137126. 156731. 11891. o
9 9 19 87077. 92440. 14802. o
-9 9 19 87179. 98041. 14661. o
1 11 19 130358. 119821. 8167. o
-1 11 19 134045. 136735. 11657. o
3 11 19 450103. 444690. 15349. o
-3 11 19 441654. 462167. 21451. o
5 11 19 266019. 245040. 13706. o
-5 11 19 258576. 265553. 23079. o
7 11 19 51405. 48410. 10702. o
-7 11 19 47973. 35189. 9012. o
1 13 19 72324. 88919. 14082. o
-1 13 19 79336. 81237. 9904. o
3 13 19 267538. 255461. 17008. o
-3 13 19 274562. 274612. 17399. o
5 13 19 545959. 537943. 25316. o
-5 13 19 550153. 577935. 36456. o
7 13 19 428903. 393964. 29603. o
-7 13 19 430370. 441623. 31528. o
1 15 19 338343. 355786. 20513. o
-1 15 19 344316. 348057. 20184. o
3 15 19 601322. 588716. 20857. o
-3 15 19 589814. 599825. 26865. o
5 15 19 365962. 371949. 21342. o
-5 15 19 361821. 407545. 31403. o
7 15 19 41625. 41448. 9263. o
-7 15 19 40183. 50194. 11547. o
1 17 19 518066. 564839. 26912. o
-1 17 19 526443. 544123. 26724. o
3 17 19 486492. 500078. 19918. o
5 17 19 4238. 23345. 10092. <
1 19 19 21831. 27585. 10436. <
0 0 20 3186340. 3163870. 43529. o
4 0 20 767564. 784297. 17180. o
8 0 20 131271. 192468. 20074. o
-8 0 20 121323. 132385. 11250. o
0 2 20 203889. 224887. 7104. o
2 2 20 273926. 282529. 6462. o
-2 2 20 282579. 308002. 7839. o
4 2 20 333494. 337167. 8214. o
-4 2 20 323486. 310787. 10248. o
6 2 20 6533. 9091. 3098. <
-6 2 20 4967. 10358. 3051. o
8 2 20 194419. 198445. 14567. o
10 2 20 63414. 60396. 12564. o
0 4 20 536632. 589686. 13691. o
2 4 20 13379. 20826. 3708. o
-2 4 20 12245. 9560. 2300. o
4 4 20 392065. 409829. 9889. o
-4 4 20 386027. 387173. 10327. o
6 4 20 8327. 13659. 3004. o
-6 4 20 10898. 12361. 5742. <
8 4 20 48122. 65293. 12799. o
-8 4 20 41541. 39273. 9106. o
10 4 20 10903. 13769. 7510. <
0 6 20 214991. 218785. 9310. o
2 6 20 413374. 430420. 14223. o
-2 6 20 419419. 439260. 12533. o
4 6 20 372777. 356428. 14004. o
-4 6 20 387818. 390834. 11532. o
6 6 20 901542. 861263. 18009. o
-6 6 20 905440. 925523. 20998. o
8 6 20 108059. 115659. 15412. o
-8 6 20 103813. 97916. 9278. o
10 6 20 491109. 479566. 33671. o
0 8 20 210483. 233430. 11172. o
2 8 20 8794. 11625. 3395. o
-2 8 20 8233. 7636. 4459. <
4 8 20 15378. 10264. 3740. <
-4 8 20 15558. 20043. 4037. o
6 8 20 90120. 80548. 9341. o
-6 8 20 90122. 82942. 6337. o
8 8 20 96322. 92752. 10061. o
-8 8 20 87610. 90984. 9153. o
10 8 20 5494. -391. 6618. <
0 10 20 326306. 317311. 13566. o
2 10 20 37874. 47237. 5445. o
-2 10 20 39936. 53417. 7886. o
4 10 20 248378. 218989. 21451. o
-4 10 20 247323. 237248. 21514. o
6 10 20 22090. 34297. 9466. o
-6 10 20 27332. 26896. 5914. o
8 10 20 135914. 126142. 11954. o
-8 10 20 134673. 119054. 10843. o
0 12 20 1258130. 1285490. 30370. o
2 12 20 38962. 44906. 7948. o
-2 12 20 36879. 49756. 7964. o
4 12 20 270800. 277428. 18072. o
-4 12 20 279110. 299866. 25410. o
6 12 20 41454. 33969. 9435. o
-6 12 20 40598. 39273. 9560. o
8 12 20 284906. 294780. 25566. o
-8 12 20 299368. 278837. 24424. o
0 14 20 229944. 228752. 16257. o
2 14 20 30231. 34532. 7510. o
-2 14 20 37913. 44671. 7667. o
4 14 20 142975. 124812. 9247. o
-4 14 20 137312. 140584. 13300. o
6 14 20 132030. 101139. 15459. o
-6 14 20 133159. 130523. 17399. o
-8 14 20 202809. 198241. 21060. o
0 16 20 79649. 84507. 10640. o
2 16 20 69760. 60896. 9325. o
-2 16 20 70828. 61162. 9012. o
4 16 20 63081. 58158. 8480. o
6 16 20 6506. 8590. 4850. <
2 18 20 322328. 343332. 20059. o
1 1 21 60203. 62617. 3380. o
-1 1 21 51783. 50695. 3520. o
3 1 21 20604. 18823. 2206. o
-3 1 21 16399. 17837. 4350. o
5 1 21 50552. 55013. 4584. o
-5 1 21 42413. 38506. 6947. o
7 1 21 227049. 231866. 15897. o
-7 1 21 222847. 232726. 15850. o
9 1 21 171332. 139676. 12689. o
11 1 21 14776. 17900. 8606. <
1 3 21 925330. 911973. 14896. o
-1 3 21 961899. 979738. 16617. o
3 3 21 962790. 994493. 17117. o
-3 3 21 957850. 971743. 18666. o
5 3 21 231615. 233211. 7057. o
-5 3 21 224773. 231537. 7667. o
7 3 21 21201. 22422. 6963. o
-7 3 21 17326. 20294. 5789. o
9 3 21 6808. -2848. 6744. <
1 5 21 29511. 36300. 3802. o
-1 5 21 32789. 32983. 3458. o
3 5 21 38730. 40837. 4678. o
-3 5 21 42828. 50225. 5148. o
5 5 21 201305. 201809. 7667. o
-5 5 21 212289. 219020. 9466. o
7 5 21 68728. 61068. 8668. o
-7 5 21 67774. 72318. 7948. o
9 5 21 8589. -626. 7479. <
-9 5 21 10148. 18447. 8042. <
1 7 21 65686. 64073. 5977. o
-1 7 21 67005. 74603. 6462. o
3 7 21 50952. 46893. 7276. o
-3 7 21 61760. 68986. 6196. o
5 7 21 53745. 48817. 4600. o
-5 7 21 55780. 57877. 5163. o
7 7 21 183212. 192170. 14301. o
-7 7 21 181425. 175648. 12330. o
9 7 21 187413. 167074. 19605. o
-9 7 21 171197. 164961. 19480. o
1 9 21 16519. 19965. 3959. o
-1 9 21 18004. 19214. 4162. o
3 9 21 207799. 199180. 10295. o
-3 9 21 217403. 234494. 14645. o
5 9 21 81099. 71974. 13300. o
-5 9 21 88063. 81941. 8496. o
7 9 21 183087. 176837. 13722. o
-7 9 21 196122. 157060. 11970. o
9 9 21 29089. 45078. 11312. o
-9 9 21 24916. 10311. 7229. <
1 11 21 133462. 149064. 9560. o
-1 11 21 133098. 131681. 11907. o
3 11 21 274988. 300241. 18322. o
-3 11 21 276400. 268885. 16648. o
5 11 21 80680. 70488. 12752. o
-5 11 21 85182. 88325. 13534. o
7 11 21 20506. 19949. 5382. o
-7 11 21 24294. 17211. 6822. <
1 13 21 2804. 3771. 4303. <
-1 13 21 4385. 12611. 6055. <
3 13 21 9578. 6587. 4428. <
-3 13 21 8738. 10734. 5195. <
5 13 21 49269. 53417. 11750. o
-5 13 21 50681. 60114. 12768. o
7 13 21 165885. 126705. 17070. o
-7 13 21 162503. 158859. 19261. o
1 15 21 47041. 54309. 8653. o
-1 15 21 51903. 57141. 9122. o
3 15 21 30336. 31731. 6415. o
-3 15 21 26760. 23298. 6525. o
5 15 21 4500. 7150. 5508. <
-5 15 21 5764. 1001. 7354. <
7 15 21 26452. 32451. 9450. o
1 17 21 197153. 209585. 23032. o
-1 17 21 203670. 199477. 22062. o
3 17 21 116070. 123013. 11704. o
2 0 22 2462630. 2423100. 43403. o
-2 0 22 2440630. 2404400. 49506. o
6 0 22 123247. 110887. 9059. o
-6 0 22 120562. 107382. 10577. o
10 0 22 86784. 62085. 13393. o
0 2 22 530240. 507338. 9967. o
2 2 22 6779. 11172. 2253. o
-2 2 22 6508. 8324. 3004. <
4 2 22 314985. 299427. 8074. o
-4 2 22 325071. 323773. 10968. o
6 2 22 8757. 8340. 2942. <
-6 2 22 6932. 2613. 2441. <
8 2 22 247146. 255398. 16992. o
-8 2 22 235338. 238703. 16976. o
10 2 22 19309. 14551. 7980. <
0 4 22 16. 4146. 2676. <
2 4 22 34885. 38131. 3786. o
-2 4 22 36429. 41025. 5242. o
4 4 22 68589. 72537. 4350. o
-4 4 22 70513. 71943. 4663. o
6 4 22 243992. 234776. 11798. o
-6 4 22 248139. 234260. 9169. o
8 4 22 43423. 52635. 11563. o
-8 4 22 43963. 47112. 10405. o
10 4 22 362175. 339842. 28868. o
0 6 22 1248140. 1245700. 24362. o
2 6 22 50361. 52541. 4882. o
-2 6 22 47102. 53229. 4788. o
4 6 22 467274. 449180. 13706. o
-4 6 22 474842. 474715. 13190. o
6 6 22 30720. 31512. 6180. o
-6 6 22 29286. 29963. 3708. o
8 6 22 60395. 74024. 13675. o
-8 6 22 61757. 48379. 11093. o
10 6 22 25237. 20309. 9231. <
0 8 22 8575. 7385. 2988. <
2 8 22 47488. 58800. 5867. o
-2 8 22 54403. 47988. 7088. o
4 8 22 9917. 15334. 5711. <
-4 8 22 9524. 7057. 3176. <
6 8 22 199869. 179419. 14035. o
-6 8 22 192965. 174803. 12361. o
8 8 22 57548. 58674. 8746. o
-8 8 22 58613. 56828. 7714. o
0 10 22 461857. 442515. 16554. o
2 10 22 88. -3943. 4491. <
-2 10 22 195. 2816. 5242. <
4 10 22 668667. 632604. 38256. o
-4 10 22 671467. 680498. 26677. o
6 10 22 9780. 13221. 5007. <
-6 10 22 9945. 11641. 4021. <
8 10 22 307879. 296314. 18729. o
-8 10 22 309171. 278477. 16617. o
0 12 22 21698. 31731. 6806. o
2 12 22 634738. 639645. 27507. o
-2 12 22 646150. 622888. 26724. o
4 12 22 176031. 179700. 14692. o
-4 12 22 185728. 199352. 14817. o
6 12 22 73032. 66028. 12298. o
-6 12 22 72578. 80486. 13894. o
8 12 22 15711. 26177. 9435. <
-8 12 22 15692. 20622. 7729. <
0 14 22 1267670. 1259470. 41542. o
2 14 22 76843. 74227. 9889. o
-2 14 22 73843. 78311. 9810. o
4 14 22 304049. 285690. 19151. o
-4 14 22 305112. 308174. 19245. o
6 14 22 53697. 45797. 11031. o
-6 14 22 50148. 48520. 10984. o
0 16 22 733. 4929. 4976. <
2 16 22 153679. 151802. 14301. o
-2 16 22 152062. 147406. 13878. o
4 16 22 40168. 49490. 11406. o
2 18 22 8903. 9091. 7870. <
1 1 23 942940. 941201. 13722. o
-1 1 23 954118. 952403. 16460. o
3 1 23 31274. 33014. 2785. o
-3 1 23 36458. 47565. 6509. o
5 1 23 35458. 34767. 3348. o
-5 1 23 35609. 44702. 7448. o
7 1 23 329237. 337683. 19871. o
-7 1 23 332933. 361794. 20622. o
9 1 23 341043. 377050. 21076. o
1 3 23 1411340. 1387770. 19793. o
-1 3 23 1439940. 1510480. 30245. o
3 3 23 308776. 300961. 9294. o
-3 3 23 301368. 298676. 14176. o
5 3 23 924766. 898016. 14974. o
-5 3 23 939946. 942843. 19621. o
7 3 23 1164470. 1090370. 36535. o
-7 3 23 1172600. 1072790. 41808. o
9 3 23 39196. 43419. 12110. o
1 5 23 14030. 14645. 3974. o
-1 5 23 11828. 14880. 2816. o
3 5 23 347307. 340484. 14019. o
-3 5 23 330480. 358243. 13519. o
5 5 23 255584. 256243. 9982. o
-5 5 23 266549. 274628. 11172. o
7 5 23 236144. 230630. 15881. o
-7 5 23 232334. 231396. 11359. o
9 5 23 211547. 223198. 23188. o
-9 5 23 213196. 195801. 21389. o
1 7 23 871532. 922785. 21217. o
-1 7 23 835665. 888081. 20434. o
3 7 23 107413. 91031. 9357. o
-3 7 23 111004. 111043. 6540. o
5 7 23 55337. 61960. 8418. o
-5 7 23 51028. 53089. 4757. o
7 7 23 809029. 824086. 31324. o
-7 7 23 808547. 789242. 27726. o
9 7 23 355387. 355567. 29212. o
-9 7 23 366918. 350263. 28242. o
1 9 23 305967. 329844. 14113. o
-1 9 23 307842. 324290. 18119. o
3 9 23 152164. 129006. 16804. o
-3 9 23 156165. 157936. 12470. o
5 9 23 495918. 528211. 24158. o
-5 9 23 505610. 492959. 14504. o
7 9 23 127836. 153492. 13378. o
-7 9 23 124806. 99840. 9685. o
1 11 23 128667. 133653. 9169. o
-1 11 23 124895. 119962. 11844. o
3 11 23 636515. 636172. 28039. o
-3 11 23 635614. 638863. 26646. o
5 11 23 478682. 435943. 32169. o
-5 11 23 494152. 477610. 22703. o
7 11 23 392566. 388863. 21436. o
-7 11 23 383165. 382291. 28195. o
1 13 23 539141. 526364. 25394. o
-1 13 23 548075. 550617. 25848. o
3 13 23 78860. 81237. 10358. o
-3 13 23 79454. 99121. 11344. o
5 13 23 241164. 230786. 23595. o
-5 13 23 246322. 264755. 17508. o
7 13 23 183702. 173739. 20466. o
-7 13 23 179260. 155745. 18510. o
1 15 23 53419. 61240. 9247. o
-1 15 23 57998. 56249. 8699. o
3 15 23 199068. 198413. 16053. o
-3 15 23 191310. 181687. 15021. o
5 15 23 217302. 187617. 21733. o
-5 15 23 211191. 222713. 23955. o
0 0 24 1075310. 1097920. 25832. o
4 0 24 1656690. 1789930. 30464. o
-4 0 24 1705860. 1894000. 56891. o
8 0 24 378706. 400160. 31074. o
0 2 24 1384960. 1348890. 22781. o
2 2 24 47826. 49756. 3129. o
-2 2 24 46205. 52463. 5304. o
4 2 24 770285. 748655. 13597. o
-4 2 24 774786. 789304. 23423. o
6 2 24 593238. 619978. 20090. o
-6 2 24 603018. 626784. 29838. o
8 2 24 442058. 408233. 22202. o
-8 2 24 436851. 455501. 24518. o
10 2 24 143625. 147484. 19323. o
0 4 24 133229. 154791. 9466. o
2 4 24 109786. 120713. 6900. o
-2 4 24 103113. 109917. 9388. o
4 4 24 3490830. 3531730. 43920. o
-4 4 24 3487000. 3621180. 46595. o
6 4 24 42625. 39148. 7041. o
-6 4 24 42900. 44092. 8527. o
8 4 24 274653. 283531. 25676. o
-8 4 24 263875. 281074. 20481. o
10 4 24 36352. 31919. 10123. o
0 6 24 515320. 483039. 16210. o
2 6 24 3245320. 3287220. 53370. o
-2 6 24 3178300. 3269230. 45344. o
4 6 24 675531. 661253. 17368. o
-4 6 24 668489. 647390. 16147. o
6 6 24 366380. 382401. 20419. o
-6 6 24 373329. 375485. 14614. o
8 6 24 442124. 443516. 32404. o
-8 6 24 438336. 398047. 19636. o
0 8 24 3650360. 3802150. 61772. o
2 8 24 206611. 218770. 10968. o
-2 8 24 214009. 231256. 15240. o
4 8 24 831113. 865565. 31356. o
-4 8 24 830614. 825025. 19230. o
6 8 24 148365. 166088. 13487. o
-6 8 24 152749. 149596. 9560. o
8 8 24 544140. 561929. 26270. o
-8 8 24 541191. 479409. 31997. o
0 10 24 597108. 589170. 19871. o
2 10 24 485202. 545625. 25660. o
-2 10 24 477386. 502472. 23626. o
4 10 24 311939. 283358. 25895. o
-4 10 24 299981. 302478. 17806. o
6 10 24 259524. 275394. 17790. o
-6 10 24 261019. 246104. 12627. o
8 10 24 135926. 140850. 18306. o
-8 10 24 142745. 122152. 15725. o
0 12 24 47933. 64339. 9278. o
2 12 24 338539. 343863. 20622. o
-2 12 24 339694. 373107. 20857. o
-4 12 24 213185. 209210. 15365. o
6 12 24 102656. 93284. 10843. o
-6 12 24 94271. 102156. 10890. o
0 14 24 122073. 124937. 12580. o
2 14 24 235184. 256900. 18009. o
-2 14 24 233445. 245322. 17665. o
4 14 24 99235. 96351. 11532. o
-4 14 24 107396. 115064. 11844. o
6 14 24 145464. 147030. 19198. o
-6 14 24 141499. 184457. 21749. o
0 16 24 812245. 811538. 46814. o
2 16 24 160539. 162067. 20356. o
1 1 25 465382. 462026. 9889. o
-1 1 25 462213. 466689. 13972. o
3 1 25 653719. 637549. 11610. o
-3 1 25 639283. 667715. 18150. o
5 1 25 103440. 115988. 5930. o
-5 1 25 107334. 135483. 9216. o
7 1 25 61938. 58987. 9560. o
-7 1 25 69086. 79610. 9779. o
9 1 25 207109. 206237. 16225. o
1 3 25 1044380. 1043400. 18510. o
-1 3 25 1101310. 1147840. 25786. o
3 3 25 470044. 490440. 13456. o
-3 3 25 460164. 443297. 18385. o
5 3 25 428208. 425491. 10170. o
-5 3 25 417600. 416338. 12783. o
7 3 25 829671. 875876. 46142. o
-7 3 25 822444. 794217. 35721. o
9 3 25 164287. 132651. 18244. o
1 5 25 332894. 353971. 14004. o
-1 5 25 349212. 330298. 12658. o
3 5 25 788299. 784798. 19464. o
-3 5 25 771638. 772015. 21358. o
5 5 25 171334. 181015. 10436. o
-5 5 25 173742. 158640. 8731. o
7 5 25 1281370. 1264300. 40540. o
-7 5 25 1283130. 1262850. 29087. o
9 5 25 309685. 344145. 28977. o
-9 5 25 305426. 272719. 25535. o
1 7 25 219517. 209194. 10953. o
-1 7 25 202726. 217956. 11735. o
3 7 25 424825. 432376. 21092. o
-3 7 25 418629. 419155. 13174. o
5 7 25 529989. 537724. 24659. o
-5 7 25 534189. 512236. 14504. o
7 7 25 3162. 3254. 4944. <
-7 7 25 2814. -939. 2738. <
-9 7 25 73748. 79578. 9216. o
1 9 25 397632. 405464. 16272. o
-1 9 25 391621. 394511. 20669. o
3 9 25 172109. 153539. 13002. o
-3 9 25 183215. 187101. 11015. o
5 9 25 1453970. 1395360. 42778. o
-5 9 25 1449640. 1439840. 27241. o
7 9 25 422334. 401208. 22156. o
-7 9 25 426608. 422644. 16742. o
1 11 25 544128. 554481. 26051. o
-1 11 25 547924. 532905. 25300. o
3 11 25 86926. 84131. 14410. o
-3 11 25 80985. 76418. 9591. o
5 11 25 8918. 8214. 5101. <
-5 11 25 10208. 13534. 3630. o
7 11 25 484919. 436819. 33374. o
-7 11 25 494791. 475138. 23126. o
1 13 25 641000. 643009. 29102. o
-1 13 25 636073. 615518. 39554. o
3 13 25 146474. 151114. 14113. o
-3 13 25 143498. 150332. 13378. o
5 13 25 231494. 259873. 25410. o
-5 13 25 230635. 231584. 16695. o
-7 13 25 266218. 258621. 24737. o
1 15 25 890339. 902835. 36018. o
-1 15 25 898928. 970835. 36910. o
3 15 25 13222. 11312. 7182. <
-3 15 25 14583. 19261. 10092. <
2 0 26 1672930. 1558990. 42433. o
-2 0 26 1561220. 1550230. 39085. o
6 0 26 380933. 411769. 30933. o
-6 0 26 378600. 375548. 21764. o
0 2 26 1082260. 1080200. 23016. o
2 2 26 455679. 441060. 10374. o
-2 2 26 466041. 460680. 15208. o
4 2 26 1245440. 1185520. 20168. o
-4 2 26 1284290. 1271620. 32373. o
6 2 26 216137. 211948. 16257. o
-6 2 26 221812. 250157. 18760. o
8 2 26 154453. 168763. 14379. o
0 4 26 52091. 68031. 6525. o
2 4 26 140151. 156747. 9450. o
-2 4 26 151793. 160142. 10749. o
4 4 26 4554. 6368. 2722. <
-4 4 26 3659. 4537. 5085. <
6 4 26 164812. 155495. 13378. o
-6 4 26 163174. 158061. 15928. o
8 4 26 54094. 68610. 14661. o
-8 4 26 53771. 57282. 9685. o
0 6 26 76277. 71082. 6478. o
2 6 26 376569. 380398. 14802. o
-2 6 26 369792. 374765. 12251. o
4 6 26 567487. 561710. 19355. o
-4 6 26 557447. 528352. 14755. o
6 6 26 289104. 319439. 19058. o
-6 6 26 283851. 279024. 12846. o
8 6 26 671904. 670985. 41448. o
-8 6 26 679514. 638112. 25504. o
0 8 26 21046. 21921. 4350. o
2 8 26 46535. 47425. 5382. o
-2 8 26 48164. 45876. 5946. o
4 8 26 18226. 25175. 6399. o
-4 8 26 17894. 30432. 4178. o
6 8 26 612084. 592502. 26552. o
-6 8 26 606230. 545125. 18823. o
8 8 26 16590. 21373. 8402. <
-8 8 26 14687. 15349. 5007. o
0 10 26 306670. 291166. 18776. o
2 10 26 360522. 378521. 21811. o
-2 10 26 349360. 362123. 20434. o
4 10 26 470091. 476499. 23611. o
-4 10 26 463511. 471696. 17900. o
6 10 26 258562. 251690. 17305. o
-6 10 26 263057. 271358. 13472. o
-8 10 26 161843. 124953. 15694. o
0 12 26 131817. 133778. 13034. o
2 12 26 1542490. 1565430. 48066. o
-2 12 26 1525900. 1574090. 47206. o
4 12 26 4618. 6368. 6931. <
-4 12 26 3634. 2785. 4287. <
6 12 26 194265. 159125. 20043. o
-6 12 26 211428. 205767. 15380. o
0 14 26 252191. 232930. 17743. o
2 14 26 239534. 249922. 18478. o
-2 14 26 256133. 275692. 18807. o
4 14 26 388024. 348276. 30026. o
-4 14 26 386902. 406653. 32091. o
1 1 27 372460. 383387. 13425. o
-1 1 27 366099. 374171. 12768. o
3 1 27 304650. 296110. 8387. o
-3 1 27 304987. 299427. 12251. o
5 1 27 68089. 64495. 7604. o
-5 1 27 65028. 62649. 6415. o
7 1 27 513397. 573507. 26787. o
-7 1 27 515485. 587542. 28430. o
9 1 27 51176. 54293. 9419. o
1 3 27 858572. 856475. 20168. o
-1 3 27 886651. 944549. 23814. o
3 3 27 50835. 51461. 5163. o
-3 3 27 51978. 62570. 5852. o
5 3 27 446804. 428104. 18212. o
-5 3 27 453612. 469959. 17868. o
7 3 27 375020. 393228. 30745. o
-7 3 27 369551. 367693. 23611. o
9 3 27 129332. 114094. 16773. o
1 5 27 222661. 240487. 11938. o
-1 5 27 216670. 210414. 10155. o
3 5 27 414325. 409235. 16710. o
-3 5 27 404061. 439417. 19308. o
5 5 27 90684. 84569. 9889. o
-5 5 27 94545. 121996. 9779. o
7 5 27 97830. 99809. 11172. o
-7 5 27 102652. 84523. 9012. o
1 7 27 547281. 530010. 18150. o
-1 7 27 533618. 541025. 19089. o
3 7 27 14926. 19965. 5758. o
-3 7 27 14946. 19214. 3630. o
5 7 27 400662. 378927. 20998. o
-5 7 27 392430. 378740. 12674. o
7 7 27 271331. 287599. 18854. o
-7 7 27 280631. 262642. 12924. o
1 9 27 390769. 411550. 21232. o
-1 9 27 387671. 400316. 17070. o
3 9 27 31229. 24424. 5930. o
-3 9 27 29434. 31481. 5289. o
5 9 27 541212. 560615. 25942. o
-5 9 27 517417. 495916. 15021. o
7 9 27 108475. 108587. 16178. o
-7 9 27 99335. 95851. 8308. o
1 11 27 150463. 160205. 14270. o
-1 11 27 146134. 160862. 14364. o
3 11 27 294481. 323210. 28226. o
-3 11 27 297603. 332473. 19949. o
5 11 27 73150. 63979. 8793. o
-5 11 27 77178. 83678. 10233. o
-7 11 27 84839. 81237. 13409. o
1 13 27 46059. 57751. 9012. o
-1 13 27 42125. 44796. 8167. o
3 13 27 160218. 156434. 20200. o
-3 13 27 157640. 152554. 14238. o
-5 13 27 88095. 91689. 15772. o
0 0 28 6140. 4788. 5289. <
4 0 28 1286600. 1300490. 30198. o
-4 0 28 1281350. 1311680. 48097. o
8 0 28 992551. 1062290. 54027. o
0 2 28 38911. 32607. 4553. o
2 2 28 362424. 378411. 11578. o
-2 2 28 362460. 374374. 14113. o
4 2 28 16376. 21295. 3693. o
-4 2 28 17483. 20231. 3552. o
6 2 28 210712. 226687. 16695. o
-6 2 28 194857. 223589. 18056. o
8 2 28 34181. 25191. 7557. o
0 4 28 145. 21248. 5695. o
2 4 28 16820. 13080. 3239. o
-2 4 28 16773. 18181. 3740. o
4 4 28 21440. 18932. 5586. o
-4 4 28 18285. 24268. 5617. o
6 4 28 84993. 74086. 9638. o
-6 4 28 82652. 86103. 12032. o
8 4 28 92580. 101671. 17508. o
-8 4 28 94029. 80924. 13519. o
0 6 28 11094. 12204. 4131. <
2 6 28 544997. 601859. 19449. o
-2 6 28 540246. 526239. 16883. o
4 6 28 15866. 12658. 4381. <
-4 6 28 15021. 14395. 3458. o
6 6 28 86044. 73883. 9544. o
-6 6 28 80673. 70660. 9122. o
-8 6 28 7285. 3536. 4021. <
0 8 28 5946. 11610. 4976. <
2 8 28 55226. 44295. 7714. o
-2 8 28 55544. 58784. 6822. o
4 8 28 114535. 110105. 11344. o
-4 8 28 121293. 130711. 7745. o
6 8 28 1251. 688. 4052. <
-6 8 28 1148. -376. 2926. <
-8 8 28 47986. 51477. 7542. o
0 10 28 143374. 122888. 9842. o
2 10 28 416737. 421987. 22218. o
-2 10 28 432579. 443422. 18087. o
4 10 28 45285. 43623. 7526. o
-4 10 28 42661. 49506. 6446. o
6 10 28 114785. 107194. 16538. o
-6 10 28 110950. 106662. 8653. o
0 12 28 6154. 16053. 5664. <
2 12 28 10164. 2613. 5445. <
-2 12 28 10764. 12924. 5257. <
4 12 28 732233. 804810. 32654. o
-4 12 28 726712. 802181. 25034. o
-6 12 28 7778. 13096. 7886. <
0 14 28 32321. 34016. 7604. o
2 14 28 173260. 182970. 22124. o
-2 14 28 173612. 186945. 22797. o
1 1 29 38611. 37880. 5085. o
-1 1 29 40488. 40618. 4569. o
3 1 29 196527. 196473. 7542. o
-3 1 29 195273. 212918. 10530. o
5 1 29 524691. 548833. 21013. o
-5 1 29 497735. 518588. 19449. o
7 1 29 157979. 204938. 16648. o
1 3 29 1509190. 1457940. 33750. o
-1 3 29 1531540. 1553930. 33108. o
3 3 29 557904. 607617. 21545. o
-3 3 29 559867. 564260. 17587. o
5 3 29 202528. 201824. 12721. o
-5 3 29 203394. 228079. 18932. o
7 3 29 25598. 20497. 8340. <
-7 3 29 32084. 27710. 7119. o
1 5 29 237390. 258512. 16695. o
-1 5 29 240006. 223119. 10796. o
3 5 29 179407. 181687. 13925. o
-3 5 29 180483. 180733. 12533. o
5 5 29 44086. 49349. 8293. o
-5 5 29 46242. 46533. 6556. o
7 5 29 111853. 101421. 11344. o
-7 5 29 109606. 111122. 9920. o
1 7 29 29517. 27022. 6259. o
-1 7 29 30530. 40556. 6931. o
3 7 29 728608. 729597. 29509. o
-3 7 29 764236. 749687. 18917. o
5 7 29 488949. 477782. 24268. o
-5 7 29 477090. 461322. 17258. o
7 7 29 573085. 583506. 39179. o
-7 7 29 568792. 511923. 22891. o
1 9 29 262584. 265255. 17133. o
-1 9 29 255228. 262220. 13988. o
3 9 29 325984. 315136. 19433. o
-3 9 29 337517. 374797. 16194. o
5 9 29 64612. 73054. 9826. o
-5 9 29 62378. 61976. 6681. o
-7 9 29 21030. 19902. 4835. o
1 11 29 715579. 736497. 25254. o
-1 11 29 692396. 731350. 24471. o
3 11 29 268146. 274221. 18056. o
-3 11 29 267510. 278367. 14301. o
5 11 29 13178. 4491. 4631. <
-5 11 29 17789. 16851. 5242. o
1 13 29 94188. 110590. 12423. o
-1 13 29 92998. 107085. 12173. o
3 13 29 26685. 37286. 9967. o
-3 13 29 34113. 44499. 13127. o
2 0 30 945502. 893166. 31997. o
-2 0 30 919403. 932298. 29900. o
6 0 30 952799. 965108. 50319. o
-6 0 30 929068. 923489. 38021. o
0 2 30 200953. 193360. 9826. o
2 2 30 703650. 700369. 19840. o
-2 2 30 702490. 689370. 20419. o
4 2 30 342729. 339482. 16194. o
-4 2 30 350370. 348980. 13268. o
6 2 30 892813. 964623. 35784. o
-6 2 30 903911. 896764. 39711. o
8 2 30 53265. 40571. 12564. o
0 4 30 109648. 124077. 11563. o
2 4 30 233861. 225341. 15912. o
-2 4 30 227729. 243945. 11719. o
4 4 30 36008. 29462. 6352. o
-4 4 30 41286. 41870. 4710. o
6 4 30 168701. 140537. 13159. o
-6 4 30 170642. 159782. 16429. o
-8 4 30 8139. 19261. 7855. <
0 6 30 560495. 563509. 24612. o
2 6 30 881158. 861575. 32263. o
-2 6 30 890917. 897281. 23016. o
4 6 30 368436. 356772. 20591. o
-4 6 30 370946. 350247. 13816. o
6 6 30 187151. 198335. 15787. o
-6 6 30 190911. 166854. 12470. o
-8 6 30 117025. 98041. 14332. o
0 8 30 175135. 198413. 14755. o
2 8 30 347698. 306296. 18854. o
-2 8 30 364044. 376471. 19558. o
4 8 30 211647. 250329. 17289. o
-4 8 30 202403. 193954. 9388. o
6 8 30 175225. 169593. 14864. o
-6 8 30 183079. 158171. 10248. o
-8 8 30 17802. 25723. 8261. o
0 10 30 26957. 31262. 5555. o
2 10 30 363254. 395841. 21874. o
-2 10 30 370369. 376690. 17086. o
4 10 30 27132. 16444. 4710. o
-4 10 30 24708. 31074. 5711. o
-6 10 30 134472. 120713. 12126. o
0 12 30 31842. 47096. 6618. o
2 12 30 260607. 263237. 17978. o
-2 12 30 260393. 273454. 14786. o
-4 12 30 337046. 369305. 31450. o
-6 12 30 260725. 245071. 25034. o
1 1 31 448399. 466376. 15694. o
-1 1 31 440469. 433471. 14692. o
3 1 31 278817. 273016. 12548. o
-3 1 31 283554. 282842. 12517. o
5 1 31 42256. 45453. 8574. o
-5 1 31 41861. 46345. 5946. o
7 1 31 72373. 91798. 12079. o
1 3 31 483734. 473823. 18181. o
-1 3 31 503157. 476014. 17352. o
3 3 31 521452. 527037. 20685. o
-3 3 31 536273. 534188. 17399. o
5 3 31 150703. 163271. 11844. o
-5 3 31 147991. 141225. 15694. o
7 3 31 463367. 480880. 35392. o
1 5 31 74772. 78530. 9810. o
-1 5 31 75104. 72600. 6259. o
3 5 31 258466. 225748. 16366. o
-3 5 31 247773. 278915. 15944. o
5 5 31 186393. 192437. 15490. o
-5 5 31 166544. 157858. 11735. o
-7 5 31 70111. 73742. 8699. o
1 7 31 826523. 774862. 30714. o
-1 7 31 835998. 831065. 30558. o
3 7 31 94349. 102297. 11344. o
-3 7 31 92064. 85696. 7150. o
5 7 31 1637. 2895. 4052. <
-5 7 31 1939. -3098. 3333. <
-7 7 31 104251. 96038. 9857. o
1 9 31 241716. 257166. 17164. o
-1 9 31 251163. 254068. 16710. o
3 9 31 687838. 695941. 29885. o
-3 9 31 699866. 708224. 23313. o
5 9 31 332826. 358258. 21624. o
-5 9 31 331174. 326621. 19480. o
1 11 31 13296. 14285. 5226. <
-1 11 31 12569. 10953. 4757. <
3 11 31 305487. 314902. 20121. o
-3 11 31 302424. 300397. 15521. o
-5 11 31 242868. 232335. 24393. o
1 13 31 38405. 40947. 11312. o
-1 13 31 40180. 34172. 9106. o
-3 13 31 67036. 79516. 13221. o
0 0 32 2276030. 2296630. 55639. o
4 0 32 388964. 410940. 22390. o
-4 0 32 398429. 419389. 26114. o
0 2 32 289661. 278821. 13753. o
2 2 32 30214. 24894. 4381. o
-2 2 32 29642. 31668. 4725. o
4 2 32 346826. 327216. 16570. o
-4 2 32 339318. 327169. 13159. o
6 2 32 84645. 80939. 11125. o
-6 2 32 78471. 107163. 13080. o
0 4 32 10820. 20356. 6071. o
2 4 32 36034. 43576. 8277. o
-2 4 32 37046. 38506. 5461. o
4 4 32 166641. 173019. 14410. o
-4 4 32 164394. 162458. 11829. o
6 4 32 22173. 20466. 6462. o
-6 4 32 23412. 26364. 7839. o
-8 4 32 104231. 84648. 13612. o
0 6 32 555192. 549615. 24847. o
2 6 32 344417. 351765. 20387. o
-2 6 32 339800. 319283. 18103. o
4 6 32 226220. 219083. 16617. o
-4 6 32 239138. 221899. 11046. o
6 6 32 801888. 826496. 47675. o
-6 6 32 812912. 852141. 42449. o
0 8 32 36996. 40869. 6931. o
2 8 32 8255. 15396. 6071. <
-2 8 32 6805. 6227. 4960. <
4 8 32 138659. 145403. 13612. o
-4 8 32 142552. 149299. 12110. o
-6 8 32 2151. 3427. 6399. <
0 10 32 310238. 303417. 18744. o
2 10 32 101944. 115784. 12376. o
-2 10 32 103630. 109041. 9497. o
-4 10 32 242336. 265146. 18166. o
-6 10 32 137329. 129178. 17821. o
0 12 32 860430. 926509. 47581. o
-2 12 32 23206. 33875. 7808. o
-2 14 32 133417. 124812. 17117. o
1 1 33 55990. 55796. 6024. o
-1 1 33 55602. 60677. 6040. o
3 1 33 183749. 195722. 10843. o
-3 1 33 183618. 178464. 10108. o
5 1 33 155936. 155980. 14614. o
-5 1 33 143579. 124484. 14176. o
1 3 33 213644. 213497. 15553. o
-1 3 33 207125. 193125. 11203. o
3 3 33 1421080. 1444750. 44374. o
-3 3 33 1424150. 1419220. 31512. o
5 3 33 428226. 405965. 22922. o
-5 3 33 449867. 450870. 28836. o
1 5 33 136837. 120181. 11891. o
-1 5 33 132306. 145716. 12971. o
3 5 33 5297. 13315. 6008. <
-3 5 33 5282. 10655. 3364. o
5 5 33 41312. 50038. 8809. o
-5 5 33 47295. 45234. 6822. o
-7 5 33 65135. 46048. 9513. o
1 7 33 106376. 100779. 11046. o
-1 7 33 113390. 109369. 10968. o
3 7 33 222639. 220397. 16726. o
-3 7 33 234662. 237702. 15568. o
5 7 33 198086. 212699. 16695. o
-5 7 33 189347. 207645. 20998. o
-7 7 33 49698. 46345. 10436. o
1 9 33 348454. 384685. 21858. o
-1 9 33 335289. 335571. 19730. o
3 9 33 608450. 602234. 28179. o
-3 9 33 606776. 624484. 26427. o
-5 9 33 147235. 122590. 17055. o
1 11 33 241267. 246886. 17618. o
-1 11 33 228590. 233336. 16945. o
-3 11 33 48050. 41995. 7557. o
-5 11 33 152533. 136970. 19167. o
-1 13 33 92832. 111215. 16476. o
2 0 34 131858. 105176. 11312. o
-2 0 34 151237. 136391. 11547. o
6 0 34 884724. 928511. 51242. o
0 2 34 8819. 8199. 3254. <
2 2 34 20118. 24878. 4522. o
-2 2 34 16971. 25676. 4835. o
4 2 34 133286. 148720. 11469. o
-4 2 34 132486. 127425. 10170. o
0 4 34 89573. 84820. 10139. o
2 4 34 417658. 403930. 22156. o
-2 4 34 406849. 399330. 15975. o
4 4 34 5081. 4788. 4835. <
-4 4 34 5029. 14489. 4913. <
-6 4 34 635313. 616316. 34751. o
0 6 34 2742290. 2778990. 65950. o
2 6 34 16783. 15114. 5742. <
-2 6 34 18789. 10248. 4678. <
4 6 34 823165. 873389. 34141. o
-4 6 34 811514. 780824. 28367. o
-6 6 34 4129. 6274. 4819. <
0 8 34 167. -1565. 4084. <
2 8 34 639264. 640396. 28758. o
-2 8 34 635134. 619962. 26630. o
-4 8 34 24905. 34297. 9544. o
-6 8 34 329024. 316247. 26740. o
0 10 34 144130. 151333. 13894. o
2 10 34 7890. 11547. 7917. <
-2 10 34 8431. 4741. 4475. <
0 12 34 14013. 20294. 8715. <
-2 12 34 129491. 106866. 15678. o
1 1 35 269410. 263613. 12282. o
-1 1 35 275874. 277538. 13785. o
3 1 35 305640. 309660. 13878. o
-3 1 35 320469. 307845. 16695. o
5 1 35 88958. 94896. 12189. o
-5 1 35 91411. 79672. 11782. o
1 3 35 71176. 71348. 9544. o
-1 3 35 60556. 56781. 6446. o
3 3 35 946165. 969505. 35752. o
-3 3 35 933899. 914508. 24737. o
5 3 35 607873. 582942. 28242. o
-5 3 35 602419. 553589. 33390. o
1 5 35 68887. 81456. 10530. o
-1 5 35 68458. 69470. 9075. o
3 5 35 26470. 24675. 6681. o
-3 5 35 23556. 41745. 7338. o
-5 5 35 275657. 269902. 23376. o
1 7 35 395484. 396076. 22187. o
-1 7 35 394566. 368961. 20685. o
3 7 35 454629. 440340. 23783. o
-3 7 35 453135. 449399. 21952. o
-5 7 35 140256. 146733. 18244. o
1 9 35 94757. 123670. 13112. o
-1 9 35 94880. 86228. 10374. o
-3 9 35 307808. 314667. 18713. o
-1 11 35 251619. 275786. 25238. o
0 0 36 1681350. 1686870. 47518. o
4 0 36 448519. 441420. 34219. o
-4 0 36 444686. 402632. 26881. o
0 2 36 1117280. 1069140. 29322. o
2 2 36 591435. 621574. 22985. o
-2 2 36 585667. 583740. 20043. o
4 2 36 474284. 485950. 21045. o
-4 2 36 475868. 465484. 30495. o
0 4 36 9645. 30260. 6556. o
2 4 36 115005. 101906. 11281. o
-2 4 36 107598. 99778. 10264. o
4 4 36 189331. 196927. 16022. o
-4 4 36 189756. 236591. 22265. o
0 6 36 347807. 359995. 21123. o
2 6 36 37011. 51493. 8402. o
-2 6 36 38585. 33405. 6822. o
-4 6 36 433525. 396138. 30057. o
-6 6 36 234379. 261140. 23532. o
0 8 36 237261. 224387. 16742. o
2 8 36 155548. 181578. 21702. o
-2 8 36 158287. 153461. 13534. o
-4 8 36 211758. 200385. 21968. o
0 10 36 200932. 194956. 21608. o
-2 10 36 257702. 280511. 25191. o
-2 12 36 174052. 184926. 20560. o
1 1 37 91561. 86369. 7463. o
-1 1 37 92411. 77403. 7651. o
3 1 37 192207. 205595. 13346. o
-3 1 37 197635. 166808. 12627. o
1 3 37 200114. 218504. 16178. o
-1 3 37 189418. 190997. 11688. o
3 3 37 25924. 22062. 7197. o
-3 3 37 24797. 10045. 4428. <
-5 3 37 14610. 21921. 7761. <
1 5 37 113702. 118554. 12095. o
-1 5 37 110066. 101687. 11140. o
3 5 37 198449. 186569. 15725. o
-3 5 37 203750. 189041. 13988. o
-5 5 37 17654. 18807. 7589. <
1 7 37 83724. 87480. 10734. o
-1 7 37 91477. 104394. 11328. o
-3 7 37 41953. 40212. 6931. o
-5 7 37 304835. 306390. 26630. o
1 9 37 22942. 33546. 10843. o
-1 9 37 22190. 26083. 9560. <
2 0 38 214937. 227469. 17055. o
-2 0 38 213549. 186866. 19683. o
0 2 38 75333. 82207. 8308. o
2 2 38 269461. 282013. 18901. o
-2 2 38 273807. 264082. 13440. o
-4 2 38 59119. 50882. 10029. o
0 4 38 6960. 10655. 4569. <
2 4 38 26898. 20826. 8965. <
-2 4 38 25741. 21717. 5758. o
-4 4 38 14756. 18212. 6759. <
0 6 38 340640. 348667. 20935. o
2 6 38 242564. 240909. 25332. o
-2 6 38 231714. 227000. 16304. o
-4 6 38 140427. 134451. 18385. o
0 8 38 739. 2347. 6978. <
-2 8 38 20121. 17462. 7839. <
-2 10 38 408732. 443454. 32122. o
1 1 39 129701. 131556. 9231. o
-1 1 39 131584. 128880. 10108. o
3 1 39 130979. 135139. 18682. o
-3 1 39 135324. 129553. 11109. o
1 3 39 577938. 571943. 27100. o
-1 3 39 570279. 579062. 20841. o
-3 3 39 214799. 234604. 15709. o
1 5 39 83816. 107726. 11813. o
-1 5 39 82871. 69236. 9576. o
-3 5 39 105054. 104394. 15897. o
-1 7 39 67972. 61741. 12376. o
-1 9 39 203255. 177212. 20998. o
0 0 40 52738. 62101. 9200. o
0 2 40 53988. 56108. 7135. o
2 2 40 400788. 444799. 33515. o
-2 2 40 400927. 391977. 16757. o
0 4 40 71688. 90124. 11046. o
-2 4 40 10237. 2848. 4256. <
-4 4 40 24630. 17086. 7573. <
0 6 40 23726. 23251. 9857. <
-2 6 40 340359. 360198. 28367. o
-2 8 40 75410. 105536. 16351. o
1 1 41 88008. 112874. 10248. o
-1 1 41 97316. 86807. 10890. o
-3 1 41 45572. 54919. 10123. o
-1 3 41 1239960. 1216500. 40352. o
-3 3 41 50548. 67828. 12001. o
-1 5 41 57994. 84632. 15819. o
-2 0 42 404934. 343332. 26928. o
0 2 42 24825. 31982. 5774. o
-2 2 42 330200. 310943. 18948. o
-2 4 42 272931. 251846. 24017. o
-1 1 43 102191. 105864. 10780. o
#BEGIN Loops that were not found in dictionaries:
loop_
_jana_cell_twin_matrix_id
_jana_cell_twin_volume_fraction
_jana_cell_twin_matrix_1_1
_jana_cell_twin_matrix_1_2
_jana_cell_twin_matrix_1_3
_jana_cell_twin_matrix_2_1
_jana_cell_twin_matrix_2_2
_jana_cell_twin_matrix_2_3
_jana_cell_twin_matrix_3_1
_jana_cell_twin_matrix_3_2
_jana_cell_twin_matrix_3_3
1 0.98(4) 1 0 0 0 1 0 0 0 1
2 0.02(4) -1 0 0 0 -1 0 0 0 -1
#END Loops that were not found in dictionaries
