
#======================================================================
# CRYSTAL DATA
#----------------------------------------------------------------------
data_VESTA_phase_1

_chemical_name_common                  'I5 Nb1'
_cell_length_a                         7.591(3)
_cell_length_b                         10.322(3)
_cell_length_c                         6.977(2)
_cell_angle_alpha                      90.93(3)
_cell_angle_beta                       116.17(3)
_cell_angle_gamma                      109.07(3)
_cell_volume                           455.352966
_space_group_name_H-M_alt              'P -1'
_space_group_IT_number                 2

loop_
_space_group_symop_operation_xyz
   'x, y, z'
   '-x, -y, -z'

loop_
   _atom_site_label
   _atom_site_occupancy
   _atom_site_fract_x
   _atom_site_fract_y
   _atom_site_fract_z
   _atom_site_adp_type
   _atom_site_B_iso_or_equiv
   _atom_site_type_symbol
   Nb1        1.0     0.22431(10)  0.22421(7)   0.10658(11) Bani 235.913986 Nb
   I1         1.0     0.38835(9)   0.14923(6)  -0.12708(9)  Bani 471.779572 I
   I2         1.0     0.00512(9)   0.25115(6)   0.31540(9)  Bani 447.399475 I
   I3         1.0     0.59212(9)   0.33643(6)   0.46177(9)  Bani 330.424683 I
   I4         1.0     0.18661(10)  0.44153(6)  -0.07812(10) Bani 398.447266 I
   I5         1.0     0.18927(8)  -0.04548(5)   0.24832(8)  Bani 417.683411 I

loop_
   _atom_site_aniso_label
   _atom_site_aniso_U_11
   _atom_site_aniso_U_22
   _atom_site_aniso_U_33
   _atom_site_aniso_U_12
   _atom_site_aniso_U_13
   _atom_site_aniso_U_23
   Nb1	 2.04615  4.41668  2.41345  1.22759  0.96524  0.56699
   I1	 4.19359 11.34390  4.02241  3.71347  2.71844  1.55175
   I2	 4.11256 10.55354  3.81171  3.52933  2.54115  1.28318
   I3	 2.67418  5.25353  3.14131  1.56518  0.09849  0.02984
   I4	 4.27463  7.20616  4.53958  3.19174  2.00929  3.01398
   I5	 2.26900  9.76319  2.33683  1.56518  0.31518  1.04445
